C51703-P30
     RDKit          3D

 45 49  0  0  0  0  0  0  0  0999 V2000
  -11.4542  -26.0490   18.7702 O   0  0  0  0  0  0  0  0  0  0  0  0
  -12.3054  -25.4968   19.4109 C   0  0  0  0  0  0  0  0  0  0  0  0
  -11.5323  -24.8758   21.1769 C   0  0  0  0  0  0  0  0  0  0  0  0
  -12.5326  -23.2837   21.6394 C   0  0  0  0  0  0  0  0  0  0  0  0
  -13.3648  -23.7010   23.3906 C   0  0  0  0  0  0  0  0  0  0  0  0
  -13.1351  -25.3299   24.4453 C   0  0  0  0  0  0  0  0  0  0  0  0
  -13.4998  -25.5986   25.7267 N   0  0  0  0  0  0  0  0  0  0  0  0
  -12.4392  -24.9639   26.2838 C   0  0  0  0  0  0  0  0  0  0  0  0
  -11.2227  -25.4615   25.8302 C   0  0  0  0  0  0  0  0  0  0  0  0
  -11.3367  -26.2293   24.4313 C   0  0  0  0  0  0  0  0  0  0  0  0
  -10.6522  -26.3327   22.4182 C   0  0  0  0  0  0  0  0  0  0  0  0
  -10.1142  -24.8722   26.5354 C   0  0  0  0  0  0  0  0  0  0  0  0
  -10.2559  -23.8357   27.6305 C   0  0  0  0  0  0  0  0  0  0  0  0
  -11.4689  -22.9502   27.5679 C   0  0  0  0  0  0  0  0  0  0  0  0
  -12.6417  -23.6814   26.9966 C   0  0  0  0  0  0  0  0  0  0  0  0
  -13.6913  -25.2150   18.8705 N   0  0  0  0  0  0  0  0  0  0  0  0
  -14.6282  -26.3710   19.1807 C   0  0  0  0  0  0  0  0  0  0  0  0
  -15.9693  -26.5290   18.4713 C   0  0  0  0  0  0  0  0  0  0  0  0
  -15.8141  -25.5303   17.3998 C   0  0  0  0  0  0  0  0  0  0  0  0
  -14.3125  -25.4108   17.4662 C   0  0  0  0  0  0  0  0  0  0  0  0
  -13.5759  -26.2588   16.4430 C   0  0  0  0  0  0  0  0  0  0  0  0
  -14.0645  -26.6849   15.2906 N   0  0  0  0  0  0  0  0  0  0  0  0
  -13.0268  -27.2654   14.6095 N   0  0  0  0  0  0  0  0  0  0  0  0
  -11.9044  -27.1841   15.3039 N   0  0  0  0  0  0  0  0  0  0  0  0
  -12.2451  -26.5780   16.4474 N   0  0  0  0  0  0  0  0  0  0  0  0
  -12.5645  -22.4180   21.0204 H   0  0  0  0  0  0  0  0  0  0  0  0
  -13.9688  -22.9433   23.9032 H   0  0  0  0  0  0  0  0  0  0  0  0
  -14.4521  -25.3784   25.9530 H   0  0  0  0  0  0  0  0  0  0  0  0
  -10.5338  -27.3667   22.1717 H   0  0  0  0  0  0  0  0  0  0  0  0
  -10.0182  -25.7615   27.1325 H   0  0  0  0  0  0  0  0  0  0  0  0
   -9.3305  -24.6059   25.8455 H   0  0  0  0  0  0  0  0  0  0  0  0
   -9.3192  -23.3007   27.7522 H   0  0  0  0  0  0  0  0  0  0  0  0
  -10.2491  -24.3559   28.5811 H   0  0  0  0  0  0  0  0  0  0  0  0
  -11.3451  -22.0374   26.9958 H   0  0  0  0  0  0  0  0  0  0  0  0
  -11.6984  -22.5655   28.5696 H   0  0  0  0  0  0  0  0  0  0  0  0
  -13.2488  -23.0054   26.3934 H   0  0  0  0  0  0  0  0  0  0  0  0
  -13.1865  -24.0285   27.8327 H   0  0  0  0  0  0  0  0  0  0  0  0
  -14.0462  -27.2842   18.9506 H   0  0  0  0  0  0  0  0  0  0  0  0
  -14.7473  -26.4895   20.2190 H   0  0  0  0  0  0  0  0  0  0  0  0
  -16.8356  -26.3393   19.1118 H   0  0  0  0  0  0  0  0  0  0  0  0
  -16.0768  -27.5475   18.0804 H   0  0  0  0  0  0  0  0  0  0  0  0
  -16.2213  -25.8612   16.4405 H   0  0  0  0  0  0  0  0  0  0  0  0
  -16.3042  -24.5868   17.6601 H   0  0  0  0  0  0  0  0  0  0  0  0
  -14.1278  -24.4098   17.0502 H   0  0  0  0  0  0  0  0  0  0  0  0
  -11.5407  -26.4199   17.1646 H   0  0  0  0  0  0  0  0  0  0  0  0
  1  2  2  0
  2  3  1  0
  3  4  2  0
  4  5  1  0
  5  6  2  0
  6  7  1  0
  7  8  1  0
  8  9  2  0
  9 10  1  0
 10 11  2  0
  9 12  1  0
 12 13  1  0
 13 14  1  0
 14 15  1  0
  2 16  1  0
 16 17  1  0
 17 18  1  0
 18 19  1  0
 19 20  1  0
 20 21  1  0
 21 22  2  0
 22 23  1  0
 23 24  2  0
 24 25  1  0
 11  3  1  0
 20 16  1  0
 25 21  1  0
 10  6  1  0
 15  8  1  0
  4 26  1  0
  5 27  1  0
  7 28  1  0
 11 29  1  0
 12 30  1  0
 12 31  1  0
 13 32  1  0
 13 33  1  0
 14 34  1  0
 14 35  1  0
 15 36  1  0
 15 37  1  0
 17 38  1  0
 17 39  1  0
 18 40  1  0
 18 41  1  0
 19 42  1  0
 19 43  1  0
 20 44  1  0
 25 45  1  0
M  END
>  <Energy>  (1) 
1063.8353569932715

>  <compound_id>  (1) 
51703

>  <target_id>  (1) 
1

>  <reference_id>  (1) 
30

>  <inspiration_ids>  (1) 
[30, 39]

>  <energy_score>  (1) 
1015.2538653314054

>  <distance_score>  (1) 
4.88968271500975

>  <path>  (1) 
/opt/xchem-fragalysis-2/maxwin/BulkDock/SCRATCH/511021/C51703-P30/C51703-P30.minimised.mol

>  <scratch_subdir>  (1) 
/opt/xchem-fragalysis-2/maxwin/BulkDock/SCRATCH/511021/C51703-P30

>  <fragmenstein_runtime>  (1) 
14.202988624572754

>  <fragmenstein_outcome>  (1) 
too moved

>  <fragmenstein_mode>  (1) 
expansion

>  <fragmenstein_error>  (1) 


$$$$
C51703-P39
     RDKit          3D

 45 49  0  0  0  0  0  0  0  0999 V2000
  -11.2808  -26.7427   17.9442 O   0  0  0  0  0  0  0  0  0  0  0  0
  -12.0648  -25.9095   18.2999 C   0  0  0  0  0  0  0  0  0  0  0  0
  -11.4943  -25.0961   20.1846 C   0  0  0  0  0  0  0  0  0  0  0  0
  -11.6503  -23.3258   20.8075 C   0  0  0  0  0  0  0  0  0  0  0  0
  -11.4240  -23.0331   22.6183 C   0  0  0  0  0  0  0  0  0  0  0  0
  -11.1213  -24.2711   23.9609 C   0  0  0  0  0  0  0  0  0  0  0  0
  -11.6028  -24.0977   25.2529 N   0  0  0  0  0  0  0  0  0  0  0  0
  -12.1473  -25.2642   25.7206 C   0  0  0  0  0  0  0  0  0  0  0  0
  -11.4708  -26.3336   25.0940 C   0  0  0  0  0  0  0  0  0  0  0  0
  -11.5168  -26.1043   23.5840 C   0  0  0  0  0  0  0  0  0  0  0  0
  -11.1265  -26.5927   21.5419 C   0  0  0  0  0  0  0  0  0  0  0  0
  -10.6927  -27.1032   26.1320 C   0  0  0  0  0  0  0  0  0  0  0  0
  -10.4253  -26.2222   27.4241 C   0  0  0  0  0  0  0  0  0  0  0  0
  -11.7552  -25.8789   28.1049 C   0  0  0  0  0  0  0  0  0  0  0  0
  -12.7253  -25.2388   27.1120 C   0  0  0  0  0  0  0  0  0  0  0  0
  -13.3006  -25.4716   17.2638 N   0  0  0  0  0  0  0  0  0  0  0  0
  -14.4991  -26.3033   17.4798 C   0  0  0  0  0  0  0  0  0  0  0  0
  -15.6729  -25.8411   16.5801 C   0  0  0  0  0  0  0  0  0  0  0  0
  -14.9469  -25.3347   15.3767 C   0  0  0  0  0  0  0  0  0  0  0  0
  -13.6133  -25.8757   15.7733 C   0  0  0  0  0  0  0  0  0  0  0  0
  -12.5039  -25.6524   14.7944 C   0  0  0  0  0  0  0  0  0  0  0  0
  -12.5812  -25.1903   13.5610 N   0  0  0  0  0  0  0  0  0  0  0  0
  -11.3111  -25.2614   13.0462 N   0  0  0  0  0  0  0  0  0  0  0  0
  -10.4703  -25.7843   13.9263 N   0  0  0  0  0  0  0  0  0  0  0  0
  -11.2076  -26.0376   15.0153 N   0  0  0  0  0  0  0  0  0  0  0  0
  -12.0376  -22.4815   20.2472 H   0  0  0  0  0  0  0  0  0  0  0  0
  -11.6344  -22.0253   22.9858 H   0  0  0  0  0  0  0  0  0  0  0  0
  -11.8156  -23.1822   25.6312 H   0  0  0  0  0  0  0  0  0  0  0  0
  -10.9078  -27.6857   21.4459 H   0  0  0  0  0  0  0  0  0  0  0  0
  -11.2685  -27.8964   26.5672 H   0  0  0  0  0  0  0  0  0  0  0  0
   -9.7858  -27.5344   25.7266 H   0  0  0  0  0  0  0  0  0  0  0  0
   -9.7787  -26.7295   28.1401 H   0  0  0  0  0  0  0  0  0  0  0  0
   -9.9254  -25.2791   27.1867 H   0  0  0  0  0  0  0  0  0  0  0  0
  -12.2032  -26.7909   28.5185 H   0  0  0  0  0  0  0  0  0  0  0  0
  -11.5833  -25.2077   28.9545 H   0  0  0  0  0  0  0  0  0  0  0  0
  -12.9280  -24.2097   27.4272 H   0  0  0  0  0  0  0  0  0  0  0  0
  -13.6840  -25.7697   27.1184 H   0  0  0  0  0  0  0  0  0  0  0  0
  -14.2903  -27.3708   17.3038 H   0  0  0  0  0  0  0  0  0  0  0  0
  -14.7430  -26.2304   18.5235 H   0  0  0  0  0  0  0  0  0  0  0  0
  -16.2782  -25.0303   16.9808 H   0  0  0  0  0  0  0  0  0  0  0  0
  -16.3402  -26.6806   16.3595 H   0  0  0  0  0  0  0  0  0  0  0  0
  -15.3333  -25.7408   14.4376 H   0  0  0  0  0  0  0  0  0  0  0  0
  -14.9526  -24.2411   15.3231 H   0  0  0  0  0  0  0  0  0  0  0  0
  -13.6093  -26.9829   15.6697 H   0  0  0  0  0  0  0  0  0  0  0  0
  -10.7803  -26.4397   15.8464 H   0  0  0  0  0  0  0  0  0  0  0  0
  1  2  2  0
  2  3  1  0
  3  4  2  0
  4  5  1  0
  5  6  2  0
  6  7  1  0
  7  8  1  0
  8  9  2  0
  9 10  1  0
 10 11  2  0
  9 12  1  0
 12 13  1  0
 13 14  1  0
 14 15  1  0
  2 16  1  0
 16 17  1  0
 17 18  1  0
 18 19  1  0
 19 20  1  0
 20 21  1  0
 21 22  2  0
 22 23  1  0
 23 24  2  0
 24 25  1  0
 11  3  1  0
 20 16  1  0
 25 21  1  0
 10  6  1  0
 15  8  1  0
  4 26  1  0
  5 27  1  0
  7 28  1  0
 11 29  1  0
 12 30  1  0
 12 31  1  0
 13 32  1  0
 13 33  1  0
 14 34  1  0
 14 35  1  0
 15 36  1  0
 15 37  1  0
 17 38  1  0
 17 39  1  0
 18 40  1  0
 18 41  1  0
 19 42  1  0
 19 43  1  0
 20 44  1  0
 25 45  1  0
M  END
>  <Energy>  (2) 
899.36549059525044

>  <compound_id>  (2) 
51703

>  <target_id>  (2) 
1

>  <reference_id>  (2) 
39

>  <inspiration_ids>  (2) 
[30, 39]

>  <energy_score>  (2) 
850.7839989333893

>  <distance_score>  (2) 
4.132519139898353

>  <path>  (2) 
/opt/xchem-fragalysis-2/maxwin/BulkDock/SCRATCH/511021/C51703-P39/C51703-P39.minimised.mol

>  <scratch_subdir>  (2) 
/opt/xchem-fragalysis-2/maxwin/BulkDock/SCRATCH/511021/C51703-P39

>  <fragmenstein_runtime>  (2) 
9.570466041564941

>  <fragmenstein_outcome>  (2) 
too moved

>  <fragmenstein_mode>  (2) 
expansion

>  <fragmenstein_error>  (2) 


$$$$
C51698-P30
     RDKit          3D

 48 51  0  0  0  0  0  0  0  0999 V2000
  -15.4856  -26.7007   15.4480 N   0  0  0  0  0  0  0  0  0  0  0  0
  -15.0758  -26.7596   17.0630 S   0  0  0  0  0  0  0  0  0  0  0  0
  -14.5253  -28.0779   17.2751 O   0  0  0  0  0  0  0  0  0  0  0  0
  -14.3083  -25.5594   17.3028 O   0  0  0  0  0  0  0  0  0  0  0  0
  -16.6837  -26.6459   17.9212 C   0  0  0  0  0  0  0  0  0  0  0  0
  -16.5321  -27.1156   19.3715 C   0  0  0  0  0  0  0  0  0  0  0  0
  -16.8763  -28.5038   19.6280 C   0  0  0  0  0  0  0  0  0  0  0  0
  -17.5243  -27.7221   20.8708 C   0  0  0  0  0  0  0  0  0  0  0  0
  -17.7984  -27.6874   22.2080 N   0  0  0  0  0  0  0  0  0  0  0  0
  -18.3173  -26.7478   23.1067 C   0  0  0  0  0  0  0  0  0  0  0  0
  -19.5025  -26.6100   23.3737 O   0  0  0  0  0  0  0  0  0  0  0  0
  -17.3492  -25.9052   23.8973 C   0  0  0  0  0  0  0  0  0  0  0  0
  -17.6772  -24.5614   24.1073 C   0  0  0  0  0  0  0  0  0  0  0  0
  -16.7413  -23.6478   24.6097 C   0  0  0  0  0  0  0  0  0  0  0  0
  -15.4608  -24.1389   24.8944 C   0  0  0  0  0  0  0  0  0  0  0  0
  -14.3046  -23.4486   25.2071 N   0  0  0  0  0  0  0  0  0  0  0  0
  -13.4159  -24.3348   25.7504 C   0  0  0  0  0  0  0  0  0  0  0  0
  -13.9008  -25.6166   25.6008 C   0  0  0  0  0  0  0  0  0  0  0  0
  -15.1722  -25.5119   24.9502 C   0  0  0  0  0  0  0  0  0  0  0  0
  -16.1663  -26.4046   24.4755 C   0  0  0  0  0  0  0  0  0  0  0  0
  -13.1836  -26.7617   26.2080 C   0  0  0  0  0  0  0  0  0  0  0  0
  -11.6646  -26.5166   26.3490 C   0  0  0  0  0  0  0  0  0  0  0  0
  -11.1500  -25.0491   26.4794 C   0  0  0  0  0  0  0  0  0  0  0  0
  -12.1892  -23.9180   26.4652 C   0  0  0  0  0  0  0  0  0  0  0  0
  -17.7245  -26.8560   20.5022 C   0  0  0  0  0  0  0  0  0  0  0  0
  -15.1013  -25.8628   15.0054 H   0  0  0  0  0  0  0  0  0  0  0  0
  -15.2118  -27.5634   14.9725 H   0  0  0  0  0  0  0  0  0  0  0  0
  -17.3888  -27.2701   17.3648 H   0  0  0  0  0  0  0  0  0  0  0  0
  -16.9965  -25.5996   17.8685 H   0  0  0  0  0  0  0  0  0  0  0  0
  -15.5524  -26.8357   19.7746 H   0  0  0  0  0  0  0  0  0  0  0  0
  -16.0572  -29.1944   19.8273 H   0  0  0  0  0  0  0  0  0  0  0  0
  -17.6222  -28.9327   18.9486 H   0  0  0  0  0  0  0  0  0  0  0  0
  -16.5356  -28.1076   21.3674 H   0  0  0  0  0  0  0  0  0  0  0  0
  -18.2944  -28.6226   20.8711 H   0  0  0  0  0  0  0  0  0  0  0  0
  -18.6531  -24.1918   23.7888 H   0  0  0  0  0  0  0  0  0  0  0  0
  -16.9750  -22.5883   24.6800 H   0  0  0  0  0  0  0  0  0  0  0  0
  -14.2461  -22.4354   25.3043 H   0  0  0  0  0  0  0  0  0  0  0  0
  -16.0384  -27.4716   24.5622 H   0  0  0  0  0  0  0  0  0  0  0  0
  -13.3607  -27.6722   25.6386 H   0  0  0  0  0  0  0  0  0  0  0  0
  -13.6216  -26.9372   27.1950 H   0  0  0  0  0  0  0  0  0  0  0  0
  -11.1730  -26.9670   25.4827 H   0  0  0  0  0  0  0  0  0  0  0  0
  -11.2891  -27.1137   27.1898 H   0  0  0  0  0  0  0  0  0  0  0  0
  -10.5173  -24.9368   27.3643 H   0  0  0  0  0  0  0  0  0  0  0  0
  -10.4274  -24.8601   25.6841 H   0  0  0  0  0  0  0  0  0  0  0  0
  -12.4328  -23.5893   27.4749 H   0  0  0  0  0  0  0  0  0  0  0  0
  -11.7807  -23.0384   25.9766 H   0  0  0  0  0  0  0  0  0  0  0  0
  -18.8087  -26.6879   20.0459 H   0  0  0  0  0  0  0  0  0  0  0  0
  -17.5863  -25.7641   20.8129 H   0  0  0  0  0  0  0  0  0  0  0  0
  1  2  1  0
  2  3  2  0
  2  4  2  0
  2  5  1  0
  5  6  1  0
  6  7  1  0
  7  8  1  0
  8  9  1  0
  9 10  1  0
 10 11  2  0
 10 12  1  0
 12 13  2  0
 13 14  1  0
 14 15  2  0
 15 16  1  0
 16 17  1  0
 17 18  2  0
 18 19  1  0
 19 20  2  0
 18 21  1  0
 21 22  1  0
 22 23  1  0
 23 24  1  0
  9 25  1  0
 25  6  1  0
 20 12  1  0
 19 15  1  0
 24 17  1  0
  1 26  1  0
  1 27  1  0
  5 28  1  0
  5 29  1  0
  6 30  1  0
  7 31  1  0
  7 32  1  0
  8 33  1  0
  8 34  1  0
 13 35  1  0
 14 36  1  0
 16 37  1  0
 20 38  1  0
 21 39  1  0
 21 40  1  0
 22 41  1  0
 22 42  1  0
 23 43  1  0
 23 44  1  0
 24 45  1  0
 24 46  1  0
 25 47  1  0
 25 48  1  0
M  END
>  <Energy>  (3) 
537.79597060693993

>  <compound_id>  (3) 
51698

>  <target_id>  (3) 
1

>  <reference_id>  (3) 
30

>  <inspiration_ids>  (3) 
[30, 39]

>  <energy_score>  (3) 
537.6151127894731

>  <distance_score>  (3) 
7.521341086020748

>  <path>  (3) 
/opt/xchem-fragalysis-2/maxwin/BulkDock/SCRATCH/511021/C51698-P30/C51698-P30.minimised.mol

>  <scratch_subdir>  (3) 
/opt/xchem-fragalysis-2/maxwin/BulkDock/SCRATCH/511021/C51698-P30

>  <fragmenstein_runtime>  (3) 
39.889150857925415

>  <fragmenstein_outcome>  (3) 
too moved

>  <fragmenstein_mode>  (3) 
expansion

>  <fragmenstein_error>  (3) 


$$$$
C51698-P39
     RDKit          3D

 48 51  0  0  0  0  0  0  0  0999 V2000
  -14.2698  -27.7317   14.2209 N   0  0  0  0  0  0  0  0  0  0  0  0
  -15.4894  -26.5825   14.1658 S   0  0  0  0  0  0  0  0  0  0  0  0
  -15.0599  -25.5458   15.0767 O   0  0  0  0  0  0  0  0  0  0  0  0
  -15.6980  -26.3199   12.7617 O   0  0  0  0  0  0  0  0  0  0  0  0
  -16.8991  -27.4775   14.8531 C   0  0  0  0  0  0  0  0  0  0  0  0
  -18.2722  -26.7260   14.8753 C   0  0  0  0  0  0  0  0  0  0  0  0
  -18.1702  -25.2282   15.1786 C   0  0  0  0  0  0  0  0  0  0  0  0
  -17.9223  -25.2111   16.6820 C   0  0  0  0  0  0  0  0  0  0  0  0
  -18.4147  -26.4999   17.1617 N   0  0  0  0  0  0  0  0  0  0  0  0
  -18.2024  -27.0053   18.4303 C   0  0  0  0  0  0  0  0  0  0  0  0
  -17.1760  -27.6849   18.5404 O   0  0  0  0  0  0  0  0  0  0  0  0
  -18.9799  -26.7390   19.7127 C   0  0  0  0  0  0  0  0  0  0  0  0
  -19.3850  -25.4359   20.0266 C   0  0  0  0  0  0  0  0  0  0  0  0
  -19.3534  -24.9413   21.3552 C   0  0  0  0  0  0  0  0  0  0  0  0
  -18.9097  -25.7932   22.3760 C   0  0  0  0  0  0  0  0  0  0  0  0
  -18.6310  -25.5442   23.7055 N   0  0  0  0  0  0  0  0  0  0  0  0
  -18.3297  -26.7192   24.3374 C   0  0  0  0  0  0  0  0  0  0  0  0
  -18.4530  -27.7454   23.4211 C   0  0  0  0  0  0  0  0  0  0  0  0
  -18.6849  -27.1509   22.1448 C   0  0  0  0  0  0  0  0  0  0  0  0
  -18.7496  -27.6208   20.8037 C   0  0  0  0  0  0  0  0  0  0  0  0
  -18.3899  -29.1838   23.8176 C   0  0  0  0  0  0  0  0  0  0  0  0
  -18.4763  -29.3451   25.3490 C   0  0  0  0  0  0  0  0  0  0  0  0
  -17.6174  -28.3083   26.0960 C   0  0  0  0  0  0  0  0  0  0  0  0
  -18.0553  -26.8639   25.7910 C   0  0  0  0  0  0  0  0  0  0  0  0
  -19.1495  -27.1588   16.1049 C   0  0  0  0  0  0  0  0  0  0  0  0
  -13.9094  -27.9134   13.2821 H   0  0  0  0  0  0  0  0  0  0  0  0
  -13.5442  -27.4516   14.8845 H   0  0  0  0  0  0  0  0  0  0  0  0
  -16.5867  -27.7801   15.8574 H   0  0  0  0  0  0  0  0  0  0  0  0
  -17.0138  -28.3897   14.2567 H   0  0  0  0  0  0  0  0  0  0  0  0
  -18.7978  -26.9001   13.9307 H   0  0  0  0  0  0  0  0  0  0  0  0
  -17.4259  -24.6726   14.6064 H   0  0  0  0  0  0  0  0  0  0  0  0
  -19.1376  -24.7528   14.9671 H   0  0  0  0  0  0  0  0  0  0  0  0
  -16.8552  -25.1390   16.8969 H   0  0  0  0  0  0  0  0  0  0  0  0
  -18.4677  -24.3914   17.1564 H   0  0  0  0  0  0  0  0  0  0  0  0
  -19.5903  -24.7278   19.2262 H   0  0  0  0  0  0  0  0  0  0  0  0
  -19.5857  -23.8981   21.5516 H   0  0  0  0  0  0  0  0  0  0  0  0
  -18.7078  -24.6396   24.1503 H   0  0  0  0  0  0  0  0  0  0  0  0
  -18.4859  -28.6543   20.5988 H   0  0  0  0  0  0  0  0  0  0  0  0
  -17.4652  -29.6378   23.4612 H   0  0  0  0  0  0  0  0  0  0  0  0
  -19.2140  -29.7370   23.3521 H   0  0  0  0  0  0  0  0  0  0  0  0
  -18.1651  -30.3587   25.6260 H   0  0  0  0  0  0  0  0  0  0  0  0
  -19.5210  -29.2342   25.6678 H   0  0  0  0  0  0  0  0  0  0  0  0
  -17.6709  -28.4847   27.1762 H   0  0  0  0  0  0  0  0  0  0  0  0
  -16.5681  -28.4412   25.8031 H   0  0  0  0  0  0  0  0  0  0  0  0
  -18.9641  -26.6279   26.3569 H   0  0  0  0  0  0  0  0  0  0  0  0
  -17.2704  -26.1693   26.1064 H   0  0  0  0  0  0  0  0  0  0  0  0
  -20.1640  -26.7493   16.0581 H   0  0  0  0  0  0  0  0  0  0  0  0
  -19.1801  -28.2410   16.2580 H   0  0  0  0  0  0  0  0  0  0  0  0
  1  2  1  0
  2  3  2  0
  2  4  2  0
  2  5  1  0
  5  6  1  0
  6  7  1  0
  7  8  1  0
  8  9  1  0
  9 10  1  0
 10 11  2  0
 10 12  1  0
 12 13  2  0
 13 14  1  0
 14 15  2  0
 15 16  1  0
 16 17  1  0
 17 18  2  0
 18 19  1  0
 19 20  2  0
 18 21  1  0
 21 22  1  0
 22 23  1  0
 23 24  1  0
  9 25  1  0
 25  6  1  0
 20 12  1  0
 19 15  1  0
 24 17  1  0
  1 26  1  0
  1 27  1  0
  5 28  1  0
  5 29  1  0
  6 30  1  0
  7 31  1  0
  7 32  1  0
  8 33  1  0
  8 34  1  0
 13 35  1  0
 14 36  1  0
 16 37  1  0
 20 38  1  0
 21 39  1  0
 21 40  1  0
 22 41  1  0
 22 42  1  0
 23 43  1  0
 23 44  1  0
 24 45  1  0
 24 46  1  0
 25 47  1  0
 25 48  1  0
M  END
>  <Energy>  (4) 
-16.523443777995375

>  <compound_id>  (4) 
51698

>  <target_id>  (4) 
1

>  <reference_id>  (4) 
39

>  <inspiration_ids>  (4) 
[30, 39]

>  <energy_score>  (4) 
-16.704301595460663

>  <distance_score>  (4) 
9.970262947113826

>  <path>  (4) 
/opt/xchem-fragalysis-2/maxwin/BulkDock/SCRATCH/511021/C51698-P39/C51698-P39.minimised.mol

>  <scratch_subdir>  (4) 
/opt/xchem-fragalysis-2/maxwin/BulkDock/SCRATCH/511021/C51698-P39

>  <fragmenstein_runtime>  (4) 
32.910510778427124

>  <fragmenstein_outcome>  (4) 
too moved

>  <fragmenstein_mode>  (4) 
expansion

>  <fragmenstein_error>  (4) 


$$$$
C51705-P30
     RDKit          3D

 51 54  0  0  0  0  0  0  0  0999 V2000
  -13.7383  -25.1510   26.7171 O   0  0  0  0  0  0  0  0  0  0  0  0
  -14.0185  -26.1593   25.8728 C   0  0  0  0  0  0  0  0  0  0  0  0
  -13.0069  -27.0910   24.7425 N   0  0  0  0  0  0  0  0  0  0  0  0
  -11.0809  -26.9089   24.1838 C   0  0  0  0  0  0  0  0  0  0  0  0
  -10.5299  -26.4602   22.0870 C   0  0  0  0  0  0  0  0  0  0  0  0
  -11.3888  -24.9329   20.8141 C   0  0  0  0  0  0  0  0  0  0  0  0
  -12.4097  -25.5177   19.3019 N   0  0  0  0  0  0  0  0  0  0  0  0
  -13.7883  -25.2105   19.0692 C   0  0  0  0  0  0  0  0  0  0  0  0
  -14.1616  -25.6800   17.6585 C   0  0  0  0  0  0  0  0  0  0  0  0
  -12.9882  -26.4973   17.1802 C   0  0  0  0  0  0  0  0  0  0  0  0
  -12.1270  -26.6980   18.4243 C   0  0  0  0  0  0  0  0  0  0  0  0
  -15.2606  -26.4085   25.8976 C   0  0  0  0  0  0  0  0  0  0  0  0
  -14.9195  -25.0099   25.0135 C   0  0  0  0  0  0  0  0  0  0  0  0
  -13.3457  -24.2355   25.0873 C   0  0  0  0  0  0  0  0  0  0  0  0
  -12.0035  -25.0773   25.9790 C   0  0  0  0  0  0  0  0  0  0  0  0
  -10.6073  -25.2832   26.0484 N   0  0  0  0  0  0  0  0  0  0  0  0
  -10.5965  -26.6726   26.3892 C   0  0  0  0  0  0  0  0  0  0  0  0
  -11.1305  -26.4679   27.5132 C   0  0  0  0  0  0  0  0  0  0  0  0
  -12.3507  -26.4487   26.9033 C   0  0  0  0  0  0  0  0  0  0  0  0
  -14.0667  -27.0909   26.9272 C   0  0  0  0  0  0  0  0  0  0  0  0
  -10.5592  -27.1813   28.5636 C   0  0  0  0  0  0  0  0  0  0  0  0
  -11.5144  -28.1838   28.6663 C   0  0  0  0  0  0  0  0  0  0  0  0
  -11.5334  -28.8287   27.2323 C   0  0  0  0  0  0  0  0  0  0  0  0
  -10.3420  -28.2059   26.5420 C   0  0  0  0  0  0  0  0  0  0  0  0
  -13.5498  -27.8322   24.3293 H   0  0  0  0  0  0  0  0  0  0  0  0
  -10.2183  -27.4662   24.5198 H   0  0  0  0  0  0  0  0  0  0  0  0
  -11.4147  -27.8711   24.4480 H   0  0  0  0  0  0  0  0  0  0  0  0
   -9.7526  -25.9030   21.5814 H   0  0  0  0  0  0  0  0  0  0  0  0
  -10.5441  -27.4872   21.4774 H   0  0  0  0  0  0  0  0  0  0  0  0
  -10.5680  -24.3704   20.4433 H   0  0  0  0  0  0  0  0  0  0  0  0
  -12.0834  -24.1258   21.0247 H   0  0  0  0  0  0  0  0  0  0  0  0
  -13.8744  -24.1381   19.0909 H   0  0  0  0  0  0  0  0  0  0  0  0
  -14.4041  -25.7869   19.7444 H   0  0  0  0  0  0  0  0  0  0  0  0
  -14.3463  -24.8364   16.9854 H   0  0  0  0  0  0  0  0  0  0  0  0
  -15.0762  -26.2830   17.6856 H   0  0  0  0  0  0  0  0  0  0  0  0
  -13.3008  -27.4503   16.7418 H   0  0  0  0  0  0  0  0  0  0  0  0
  -12.4314  -25.9476   16.4133 H   0  0  0  0  0  0  0  0  0  0  0  0
  -12.4421  -27.6391   18.8911 H   0  0  0  0  0  0  0  0  0  0  0  0
  -11.1074  -26.7877   18.0691 H   0  0  0  0  0  0  0  0  0  0  0  0
  -15.7532  -24.4406   24.6053 H   0  0  0  0  0  0  0  0  0  0  0  0
  -13.1498  -23.2463   24.6731 H   0  0  0  0  0  0  0  0  0  0  0  0
   -9.9187  -24.7670   25.5155 H   0  0  0  0  0  0  0  0  0  0  0  0
  -14.4367  -27.7384   27.6946 H   0  0  0  0  0  0  0  0  0  0  0  0
   -9.6777  -27.8301   28.6276 H   0  0  0  0  0  0  0  0  0  0  0  0
  -10.2790  -26.3233   29.0735 H   0  0  0  0  0  0  0  0  0  0  0  0
  -12.4143  -27.7352   29.0169 H   0  0  0  0  0  0  0  0  0  0  0  0
  -11.0630  -28.6175   29.5176 H   0  0  0  0  0  0  0  0  0  0  0  0
  -11.6807  -29.9013   27.1537 H   0  0  0  0  0  0  0  0  0  0  0  0
  -12.4117  -28.6125   26.6319 H   0  0  0  0  0  0  0  0  0  0  0  0
  -10.1340  -28.5200   25.6099 H   0  0  0  0  0  0  0  0  0  0  0  0
   -9.4845  -28.6318   27.0908 H   0  0  0  0  0  0  0  0  0  0  0  0
  1  2  2  0
  2  3  1  0
  3  4  1  0
  4  5  1  0
  5  6  1  0
  6  7  1  0
  7  8  1  0
  8  9  1  0
  9 10  1  0
 10 11  1  0
  2 12  1  0
 12 13  2  0
 13 14  1  0
 14 15  2  0
 15 16  1  0
 16 17  1  0
 17 18  2  0
 18 19  1  0
 19 20  2  0
 18 21  1  0
 21 22  1  0
 22 23  1  0
 23 24  1  0
 11  7  1  0
 20 12  1  0
 19 15  1  0
 24 17  1  0
  3 25  1  0
  4 26  1  0
  4 27  1  0
  5 28  1  0
  5 29  1  0
  6 30  1  0
  6 31  1  0
  8 32  1  0
  8 33  1  0
  9 34  1  0
  9 35  1  0
 10 36  1  0
 10 37  1  0
 11 38  1  0
 11 39  1  0
 13 40  1  0
 14 41  1  0
 16 42  1  0
 20 43  1  0
 21 44  1  0
 21 45  1  0
 22 46  1  0
 22 47  1  0
 23 48  1  0
 23 49  1  0
 24 50  1  0
 24 51  1  0
M  END
>  <Energy>  (5) 
1592.6470097377921

>  <compound_id>  (5) 
51705

>  <target_id>  (5) 
1

>  <reference_id>  (5) 
30

>  <inspiration_ids>  (5) 
[30, 39]

>  <energy_score>  (5) 
1548.983491364283

>  <distance_score>  (5) 
5.761578084902385

>  <path>  (5) 
/opt/xchem-fragalysis-2/maxwin/BulkDock/SCRATCH/511021/C51705-P30/C51705-P30.minimised.mol

>  <scratch_subdir>  (5) 
/opt/xchem-fragalysis-2/maxwin/BulkDock/SCRATCH/511021/C51705-P30

>  <fragmenstein_runtime>  (5) 
16.740261793136597

>  <fragmenstein_outcome>  (5) 
too moved

>  <fragmenstein_mode>  (5) 
expansion

>  <fragmenstein_error>  (5) 


$$$$
C51705-P39
     RDKit          3D

 51 54  0  0  0  0  0  0  0  0999 V2000
  -10.5166  -25.1676   24.4065 O   0  0  0  0  0  0  0  0  0  0  0  0
  -11.0079  -26.2409   24.7097 C   0  0  0  0  0  0  0  0  0  0  0  0
  -11.2569  -27.6457   23.7851 N   0  0  0  0  0  0  0  0  0  0  0  0
  -10.7370  -28.1099   22.0117 C   0  0  0  0  0  0  0  0  0  0  0  0
  -10.4466  -29.8690   21.3630 C   0  0  0  0  0  0  0  0  0  0  0  0
  -11.2675  -30.8639   20.4596 C   0  0  0  0  0  0  0  0  0  0  0  0
  -12.6182  -31.4051   20.5562 N   0  0  0  0  0  0  0  0  0  0  0  0
  -13.0495  -31.9803   19.2656 C   0  0  0  0  0  0  0  0  0  0  0  0
  -14.3693  -32.6072   19.6407 C   0  0  0  0  0  0  0  0  0  0  0  0
  -14.1368  -33.0806   21.0715 C   0  0  0  0  0  0  0  0  0  0  0  0
  -12.8008  -32.4778   21.5102 C   0  0  0  0  0  0  0  0  0  0  0  0
  -11.3491  -26.4102   26.1579 C   0  0  0  0  0  0  0  0  0  0  0  0
  -10.3448  -26.1184   27.0609 C   0  0  0  0  0  0  0  0  0  0  0  0
   -9.1421  -27.0227   27.1186 C   0  0  0  0  0  0  0  0  0  0  0  0
   -8.9244  -28.2520   26.0346 C   0  0  0  0  0  0  0  0  0  0  0  0
   -9.0142  -29.9310   26.0864 N   0  0  0  0  0  0  0  0  0  0  0  0
  -10.1198  -30.5464   25.4401 C   0  0  0  0  0  0  0  0  0  0  0  0
   -9.7151  -29.6436   24.5484 C   0  0  0  0  0  0  0  0  0  0  0  0
  -10.0728  -28.4210   25.3954 C   0  0  0  0  0  0  0  0  0  0  0  0
  -11.1364  -27.7256   26.2786 C   0  0  0  0  0  0  0  0  0  0  0  0
   -8.5182  -30.1713   23.6123 C   0  0  0  0  0  0  0  0  0  0  0  0
   -8.5275  -31.6966   23.3073 C   0  0  0  0  0  0  0  0  0  0  0  0
   -9.3607  -32.6065   24.2176 C   0  0  0  0  0  0  0  0  0  0  0  0
  -10.4624  -31.9234   25.0261 C   0  0  0  0  0  0  0  0  0  0  0  0
  -11.7574  -28.3162   24.3171 H   0  0  0  0  0  0  0  0  0  0  0  0
   -9.7212  -28.2297   22.3629 H   0  0  0  0  0  0  0  0  0  0  0  0
  -10.7826  -27.3628   21.2602 H   0  0  0  0  0  0  0  0  0  0  0  0
   -9.4519  -29.8123   20.9385 H   0  0  0  0  0  0  0  0  0  0  0  0
  -10.2909  -30.5232   22.2118 H   0  0  0  0  0  0  0  0  0  0  0  0
  -11.3880  -30.2932   19.5599 H   0  0  0  0  0  0  0  0  0  0  0  0
  -10.5984  -31.7191   20.2974 H   0  0  0  0  0  0  0  0  0  0  0  0
  -12.3498  -32.7517   18.9176 H   0  0  0  0  0  0  0  0  0  0  0  0
  -13.1645  -31.2397   18.4697 H   0  0  0  0  0  0  0  0  0  0  0  0
  -14.6431  -33.4307   18.9744 H   0  0  0  0  0  0  0  0  0  0  0  0
  -15.1786  -31.8682   19.6180 H   0  0  0  0  0  0  0  0  0  0  0  0
  -14.9567  -32.7493   21.7182 H   0  0  0  0  0  0  0  0  0  0  0  0
  -14.0981  -34.1743   21.1226 H   0  0  0  0  0  0  0  0  0  0  0  0
  -12.0108  -33.2359   21.4392 H   0  0  0  0  0  0  0  0  0  0  0  0
  -12.8468  -32.1255   22.5431 H   0  0  0  0  0  0  0  0  0  0  0  0
  -10.4111  -25.2757   27.7416 H   0  0  0  0  0  0  0  0  0  0  0  0
   -8.3948  -26.8963   27.8971 H   0  0  0  0  0  0  0  0  0  0  0  0
   -8.1469  -30.4265   26.1887 H   0  0  0  0  0  0  0  0  0  0  0  0
  -11.4992  -28.2118   27.1992 H   0  0  0  0  0  0  0  0  0  0  0  0
   -8.4514  -29.6617   22.6619 H   0  0  0  0  0  0  0  0  0  0  0  0
   -7.5574  -29.9007   24.0596 H   0  0  0  0  0  0  0  0  0  0  0  0
   -7.4892  -32.0548   23.2941 H   0  0  0  0  0  0  0  0  0  0  0  0
   -8.8458  -31.8730   22.2737 H   0  0  0  0  0  0  0  0  0  0  0  0
   -8.6721  -33.1313   24.8777 H   0  0  0  0  0  0  0  0  0  0  0  0
   -9.8095  -33.4054   23.6128 H   0  0  0  0  0  0  0  0  0  0  0  0
  -11.3301  -31.8373   24.3570 H   0  0  0  0  0  0  0  0  0  0  0  0
  -10.8509  -32.5244   25.8414 H   0  0  0  0  0  0  0  0  0  0  0  0
  1  2  2  0
  2  3  1  0
  3  4  1  0
  4  5  1  0
  5  6  1  0
  6  7  1  0
  7  8  1  0
  8  9  1  0
  9 10  1  0
 10 11  1  0
  2 12  1  0
 12 13  2  0
 13 14  1  0
 14 15  2  0
 15 16  1  0
 16 17  1  0
 17 18  2  0
 18 19  1  0
 19 20  2  0
 18 21  1  0
 21 22  1  0
 22 23  1  0
 23 24  1  0
 11  7  1  0
 20 12  1  0
 19 15  1  0
 24 17  1  0
  3 25  1  0
  4 26  1  0
  4 27  1  0
  5 28  1  0
  5 29  1  0
  6 30  1  0
  6 31  1  0
  8 32  1  0
  8 33  1  0
  9 34  1  0
  9 35  1  0
 10 36  1  0
 10 37  1  0
 11 38  1  0
 11 39  1  0
 13 40  1  0
 14 41  1  0
 16 42  1  0
 20 43  1  0
 21 44  1  0
 21 45  1  0
 22 46  1  0
 22 47  1  0
 23 48  1  0
 23 49  1  0
 24 50  1  0
 24 51  1  0
M  END
>  <Energy>  (6) 
584.72419372914328

>  <compound_id>  (6) 
51705

>  <target_id>  (6) 
1

>  <reference_id>  (6) 
39

>  <inspiration_ids>  (6) 
[30, 39]

>  <energy_score>  (6) 
541.0606753556408

>  <distance_score>  (6) 
8.12711639054922

>  <path>  (6) 
/opt/xchem-fragalysis-2/maxwin/BulkDock/SCRATCH/511021/C51705-P39/C51705-P39.minimised.mol

>  <scratch_subdir>  (6) 
/opt/xchem-fragalysis-2/maxwin/BulkDock/SCRATCH/511021/C51705-P39

>  <fragmenstein_runtime>  (6) 
15.299642086029053

>  <fragmenstein_outcome>  (6) 
too moved

>  <fragmenstein_mode>  (6) 
expansion

>  <fragmenstein_error>  (6) 


$$$$
C51706-P30
     RDKit          3D

 54 58  0  0  0  0  0  0  0  0999 V2000
  -13.3445  -25.7519   27.3075 O   0  0  0  0  0  0  0  0  0  0  0  0
  -13.6815  -26.6304   26.5505 C   0  0  0  0  0  0  0  0  0  0  0  0
  -12.7547  -27.3566   24.9072 N   0  0  0  0  0  0  0  0  0  0  0  0
  -10.9815  -27.0044   24.0741 C   0  0  0  0  0  0  0  0  0  0  0  0
  -10.4759  -26.4514   22.0173 C   0  0  0  0  0  0  0  0  0  0  0  0
  -11.2357  -24.9661   20.9661 C   0  0  0  0  0  0  0  0  0  0  0  0
  -12.4608  -25.2014   19.6576 C   0  0  0  0  0  0  0  0  0  0  0  0
  -12.5646  -26.5820   18.8915 C   0  0  0  0  0  0  0  0  0  0  0  0
  -13.2960  -26.7523   17.7349 N   0  0  0  0  0  0  0  0  0  0  0  0
  -12.5987  -27.5088   16.6896 C   0  0  0  0  0  0  0  0  0  0  0  0
  -12.9343  -26.7596   15.3998 C   0  0  0  0  0  0  0  0  0  0  0  0
  -14.3063  -26.1753   15.6922 C   0  0  0  0  0  0  0  0  0  0  0  0
  -14.1905  -25.7596   17.1575 C   0  0  0  0  0  0  0  0  0  0  0  0
  -11.8248  -27.7968   19.4860 N   0  0  0  0  0  0  0  0  0  0  0  0
  -10.6223  -27.6831   20.8909 C   0  0  0  0  0  0  0  0  0  0  0  0
  -15.2812  -27.4431   27.2404 C   0  0  0  0  0  0  0  0  0  0  0  0
  -16.2590  -26.5564   27.6815 C   0  0  0  0  0  0  0  0  0  0  0  0
  -17.2064  -26.2058   26.6954 C   0  0  0  0  0  0  0  0  0  0  0  0
  -16.7640  -26.7457   25.4719 C   0  0  0  0  0  0  0  0  0  0  0  0
  -16.1129  -25.9877   24.4741 N   0  0  0  0  0  0  0  0  0  0  0  0
  -14.7576  -26.2728   24.6777 C   0  0  0  0  0  0  0  0  0  0  0  0
  -14.7567  -27.7571   25.1590 C   0  0  0  0  0  0  0  0  0  0  0  0
  -16.0637  -28.0099   25.5694 C   0  0  0  0  0  0  0  0  0  0  0  0
  -16.0184  -28.5338   26.8149 C   0  0  0  0  0  0  0  0  0  0  0  0
  -13.3303  -28.5483   26.3373 C   0  0  0  0  0  0  0  0  0  0  0  0
  -11.8005  -27.3625   26.7994 C   0  0  0  0  0  0  0  0  0  0  0  0
  -11.8836  -25.5063   26.0909 C   0  0  0  0  0  0  0  0  0  0  0  0
  -13.5356  -24.9927   25.1354 C   0  0  0  0  0  0  0  0  0  0  0  0
  -13.3013  -28.0253   24.4322 H   0  0  0  0  0  0  0  0  0  0  0  0
  -11.0195  -26.1456   24.6546 H   0  0  0  0  0  0  0  0  0  0  0  0
  -10.2643  -27.6132   24.6599 H   0  0  0  0  0  0  0  0  0  0  0  0
  -11.4800  -23.9031   21.1710 H   0  0  0  0  0  0  0  0  0  0  0  0
  -13.1612  -24.4344   19.4476 H   0  0  0  0  0  0  0  0  0  0  0  0
  -11.5108  -27.5546   16.8197 H   0  0  0  0  0  0  0  0  0  0  0  0
  -12.9933  -28.5307   16.6587 H   0  0  0  0  0  0  0  0  0  0  0  0
  -12.9281  -27.4138   14.5236 H   0  0  0  0  0  0  0  0  0  0  0  0
  -12.2082  -25.9558   15.2327 H   0  0  0  0  0  0  0  0  0  0  0  0
  -14.5610  -25.3369   15.0379 H   0  0  0  0  0  0  0  0  0  0  0  0
  -15.0757  -26.9484   15.5788 H   0  0  0  0  0  0  0  0  0  0  0  0
  -13.7897  -24.7468   17.2168 H   0  0  0  0  0  0  0  0  0  0  0  0
  -15.1675  -25.7716   17.6506 H   0  0  0  0  0  0  0  0  0  0  0  0
  -10.3395  -28.6418   21.3327 H   0  0  0  0  0  0  0  0  0  0  0  0
  -16.2051  -25.9640   28.5844 H   0  0  0  0  0  0  0  0  0  0  0  0
  -17.7726  -25.2832   26.7765 H   0  0  0  0  0  0  0  0  0  0  0  0
  -16.4109  -25.0378   24.3124 H   0  0  0  0  0  0  0  0  0  0  0  0
  -16.9225  -28.8677   27.3203 H   0  0  0  0  0  0  0  0  0  0  0  0
  -12.5531  -29.1269   25.9109 H   0  0  0  0  0  0  0  0  0  0  0  0
  -13.7692  -29.5203   26.6212 H   0  0  0  0  0  0  0  0  0  0  0  0
  -10.8952  -27.8391   26.4281 H   0  0  0  0  0  0  0  0  0  0  0  0
  -11.6768  -27.3948   27.8833 H   0  0  0  0  0  0  0  0  0  0  0  0
  -10.8956  -25.0854   25.8112 H   0  0  0  0  0  0  0  0  0  0  0  0
  -11.8361  -24.7451   26.8986 H   0  0  0  0  0  0  0  0  0  0  0  0
  -13.5114  -24.3179   24.2775 H   0  0  0  0  0  0  0  0  0  0  0  0
  -14.0565  -24.3176   25.8138 H   0  0  0  0  0  0  0  0  0  0  0  0
  1  2  2  0
  2  3  1  0
  3  4  1  0
  4  5  1  0
  5  6  2  0
  6  7  1  0
  7  8  2  0
  8  9  1  0
  9 10  1  0
 10 11  1  0
 11 12  1  0
 12 13  1  0
  8 14  1  0
 14 15  2  0
  2 16  1  0
 16 17  2  0
 17 18  1  0
 18 19  2  0
 19 20  1  0
 20 21  1  0
 21 22  2  0
 22 23  1  0
 23 24  2  0
 22 25  1  0
 25 26  1  0
 26 27  1  0
 27 28  1  0
 15  5  1  0
 24 16  1  0
 13  9  1  0
 23 19  1  0
 28 21  1  0
  3 29  1  0
  4 30  1  0
  4 31  1  0
  6 32  1  0
  7 33  1  0
 10 34  1  0
 10 35  1  0
 11 36  1  0
 11 37  1  0
 12 38  1  0
 12 39  1  0
 13 40  1  0
 13 41  1  0
 15 42  1  0
 17 43  1  0
 18 44  1  0
 20 45  1  0
 24 46  1  0
 25 47  1  0
 25 48  1  0
 26 49  1  0
 26 50  1  0
 27 51  1  0
 27 52  1  0
 28 53  1  0
 28 54  1  0
M  END
>  <Energy>  (7) 
1636.7558213371681

>  <compound_id>  (7) 
51706

>  <target_id>  (7) 
1

>  <reference_id>  (7) 
30

>  <inspiration_ids>  (7) 
[30, 39]

>  <energy_score>  (7) 
1601.5806069756356

>  <distance_score>  (7) 
6.059131059994657

>  <path>  (7) 
/opt/xchem-fragalysis-2/maxwin/BulkDock/SCRATCH/511021/C51706-P30/C51706-P30.minimised.mol

>  <scratch_subdir>  (7) 
/opt/xchem-fragalysis-2/maxwin/BulkDock/SCRATCH/511021/C51706-P30

>  <fragmenstein_runtime>  (7) 
19.38022756576538

>  <fragmenstein_outcome>  (7) 
too moved

>  <fragmenstein_mode>  (7) 
expansion

>  <fragmenstein_error>  (7) 


$$$$
C51706-P39
     RDKit          3D

 54 58  0  0  0  0  0  0  0  0999 V2000
  -13.7795  -26.7288   23.8786 O   0  0  0  0  0  0  0  0  0  0  0  0
  -12.6626  -26.8837   24.3442 C   0  0  0  0  0  0  0  0  0  0  0  0
  -11.3699  -27.3689   23.6844 N   0  0  0  0  0  0  0  0  0  0  0  0
  -10.9501  -27.7990   21.7962 C   0  0  0  0  0  0  0  0  0  0  0  0
  -10.5467  -26.4817   20.3009 C   0  0  0  0  0  0  0  0  0  0  0  0
  -11.5954  -24.9676   20.0009 C   0  0  0  0  0  0  0  0  0  0  0  0
  -13.0393  -25.0384   18.9743 C   0  0  0  0  0  0  0  0  0  0  0  0
  -13.1249  -25.8935   17.6652 C   0  0  0  0  0  0  0  0  0  0  0  0
  -13.9051  -25.5511   16.5675 N   0  0  0  0  0  0  0  0  0  0  0  0
  -13.4603  -26.0953   15.2670 C   0  0  0  0  0  0  0  0  0  0  0  0
  -14.5059  -25.5639   14.3020 C   0  0  0  0  0  0  0  0  0  0  0  0
  -15.7765  -25.7389   15.1114 C   0  0  0  0  0  0  0  0  0  0  0  0
  -15.3517  -25.4237   16.5523 C   0  0  0  0  0  0  0  0  0  0  0  0
  -12.0004  -26.5912   17.3227 N   0  0  0  0  0  0  0  0  0  0  0  0
  -11.1499  -26.9282   18.4512 C   0  0  0  0  0  0  0  0  0  0  0  0
  -12.6260  -26.3857   25.7577 C   0  0  0  0  0  0  0  0  0  0  0  0
  -13.0794  -25.0625   25.6897 C   0  0  0  0  0  0  0  0  0  0  0  0
  -13.0508  -24.2257   26.7491 C   0  0  0  0  0  0  0  0  0  0  0  0
  -13.0969  -24.8444   27.9584 C   0  0  0  0  0  0  0  0  0  0  0  0
  -13.3447  -24.3093   29.1940 N   0  0  0  0  0  0  0  0  0  0  0  0
  -12.2315  -24.6987   29.8460 C   0  0  0  0  0  0  0  0  0  0  0  0
  -11.9730  -26.0092   29.4773 C   0  0  0  0  0  0  0  0  0  0  0  0
  -12.5018  -26.0917   28.1421 C   0  0  0  0  0  0  0  0  0  0  0  0
  -12.1482  -26.8302   26.9889 C   0  0  0  0  0  0  0  0  0  0  0  0
  -10.6717  -26.5697   29.8916 C   0  0  0  0  0  0  0  0  0  0  0  0
   -9.5654  -25.6272   29.3807 C   0  0  0  0  0  0  0  0  0  0  0  0
  -10.1009  -24.2863   28.8628 C   0  0  0  0  0  0  0  0  0  0  0  0
  -11.1168  -23.7463   29.9504 C   0  0  0  0  0  0  0  0  0  0  0  0
  -10.6323  -27.4597   24.4075 H   0  0  0  0  0  0  0  0  0  0  0  0
   -9.9659  -28.1821   22.1939 H   0  0  0  0  0  0  0  0  0  0  0  0
  -10.9338  -28.8002   21.3430 H   0  0  0  0  0  0  0  0  0  0  0  0
  -11.5590  -23.9773   20.4424 H   0  0  0  0  0  0  0  0  0  0  0  0
  -13.5749  -24.1245   18.8745 H   0  0  0  0  0  0  0  0  0  0  0  0
  -12.4597  -25.7600   14.9751 H   0  0  0  0  0  0  0  0  0  0  0  0
  -13.4840  -27.1934   15.2756 H   0  0  0  0  0  0  0  0  0  0  0  0
  -14.5257  -26.1112   13.3559 H   0  0  0  0  0  0  0  0  0  0  0  0
  -14.3349  -24.5020   14.0898 H   0  0  0  0  0  0  0  0  0  0  0  0
  -16.5910  -25.0944   14.7679 H   0  0  0  0  0  0  0  0  0  0  0  0
  -16.1219  -26.7781   15.0469 H   0  0  0  0  0  0  0  0  0  0  0  0
  -15.6380  -24.3958   16.7884 H   0  0  0  0  0  0  0  0  0  0  0  0
  -15.8389  -26.1301   17.2312 H   0  0  0  0  0  0  0  0  0  0  0  0
  -11.9047  -27.8974   18.5184 H   0  0  0  0  0  0  0  0  0  0  0  0
  -13.4492  -24.6005   24.7808 H   0  0  0  0  0  0  0  0  0  0  0  0
  -13.1088  -23.1690   26.6124 H   0  0  0  0  0  0  0  0  0  0  0  0
  -13.7565  -23.4054   29.3460 H   0  0  0  0  0  0  0  0  0  0  0  0
  -11.5444  -27.7114   27.1019 H   0  0  0  0  0  0  0  0  0  0  0  0
  -10.5712  -27.5225   29.4233 H   0  0  0  0  0  0  0  0  0  0  0  0
  -10.6162  -26.7019   30.9773 H   0  0  0  0  0  0  0  0  0  0  0  0
   -8.8945  -25.4186   30.2166 H   0  0  0  0  0  0  0  0  0  0  0  0
   -9.0035  -26.1191   28.5833 H   0  0  0  0  0  0  0  0  0  0  0  0
  -10.5661  -24.4228   27.8834 H   0  0  0  0  0  0  0  0  0  0  0  0
   -9.3013  -23.6111   28.5690 H   0  0  0  0  0  0  0  0  0  0  0  0
  -11.4233  -22.7213   29.7099 H   0  0  0  0  0  0  0  0  0  0  0  0
  -10.7328  -23.7868   30.9772 H   0  0  0  0  0  0  0  0  0  0  0  0
  1  2  2  0
  2  3  1  0
  3  4  1  0
  4  5  1  0
  5  6  2  0
  6  7  1  0
  7  8  2  0
  8  9  1  0
  9 10  1  0
 10 11  1  0
 11 12  1  0
 12 13  1  0
  8 14  1  0
 14 15  2  0
  2 16  1  0
 16 17  2  0
 17 18  1  0
 18 19  2  0
 19 20  1  0
 20 21  1  0
 21 22  2  0
 22 23  1  0
 23 24  2  0
 22 25  1  0
 25 26  1  0
 26 27  1  0
 27 28  1  0
 15  5  1  0
 24 16  1  0
 13  9  1  0
 23 19  1  0
 28 21  1  0
  3 29  1  0
  4 30  1  0
  4 31  1  0
  6 32  1  0
  7 33  1  0
 10 34  1  0
 10 35  1  0
 11 36  1  0
 11 37  1  0
 12 38  1  0
 12 39  1  0
 13 40  1  0
 13 41  1  0
 15 42  1  0
 17 43  1  0
 18 44  1  0
 20 45  1  0
 24 46  1  0
 25 47  1  0
 25 48  1  0
 26 49  1  0
 26 50  1  0
 27 51  1  0
 27 52  1  0
 28 53  1  0
 28 54  1  0
M  END
>  <Energy>  (8) 
628.11089246424365

>  <compound_id>  (8) 
51706

>  <target_id>  (8) 
1

>  <reference_id>  (8) 
39

>  <inspiration_ids>  (8) 
[30, 39]

>  <energy_score>  (8) 
592.9356781026906

>  <distance_score>  (8) 
5.238583371230323

>  <path>  (8) 
/opt/xchem-fragalysis-2/maxwin/BulkDock/SCRATCH/511021/C51706-P39/C51706-P39.minimised.mol

>  <scratch_subdir>  (8) 
/opt/xchem-fragalysis-2/maxwin/BulkDock/SCRATCH/511021/C51706-P39

>  <fragmenstein_runtime>  (8) 
20.40894389152527

>  <fragmenstein_outcome>  (8) 
too moved

>  <fragmenstein_mode>  (8) 
expansion

>  <fragmenstein_error>  (8) 


$$$$
C51703-P30
     RDKit          3D

 45 49  0  0  0  0  0  0  0  0999 V2000
  -11.4542  -26.0490   18.7702 O   0  0  0  0  0  0  0  0  0  0  0  0
  -12.3054  -25.4968   19.4109 C   0  0  0  0  0  0  0  0  0  0  0  0
  -11.5323  -24.8758   21.1769 C   0  0  0  0  0  0  0  0  0  0  0  0
  -12.5326  -23.2837   21.6394 C   0  0  0  0  0  0  0  0  0  0  0  0
  -13.3648  -23.7010   23.3906 C   0  0  0  0  0  0  0  0  0  0  0  0
  -13.1351  -25.3299   24.4453 C   0  0  0  0  0  0  0  0  0  0  0  0
  -13.4998  -25.5986   25.7267 N   0  0  0  0  0  0  0  0  0  0  0  0
  -12.4392  -24.9639   26.2838 C   0  0  0  0  0  0  0  0  0  0  0  0
  -11.2227  -25.4615   25.8302 C   0  0  0  0  0  0  0  0  0  0  0  0
  -11.3367  -26.2293   24.4313 C   0  0  0  0  0  0  0  0  0  0  0  0
  -10.6522  -26.3327   22.4182 C   0  0  0  0  0  0  0  0  0  0  0  0
  -10.1142  -24.8722   26.5354 C   0  0  0  0  0  0  0  0  0  0  0  0
  -10.2559  -23.8357   27.6305 C   0  0  0  0  0  0  0  0  0  0  0  0
  -11.4689  -22.9502   27.5679 C   0  0  0  0  0  0  0  0  0  0  0  0
  -12.6417  -23.6814   26.9966 C   0  0  0  0  0  0  0  0  0  0  0  0
  -13.6913  -25.2150   18.8705 N   0  0  0  0  0  0  0  0  0  0  0  0
  -14.6282  -26.3710   19.1807 C   0  0  0  0  0  0  0  0  0  0  0  0
  -15.9693  -26.5290   18.4713 C   0  0  0  0  0  0  0  0  0  0  0  0
  -15.8141  -25.5303   17.3998 C   0  0  0  0  0  0  0  0  0  0  0  0
  -14.3125  -25.4108   17.4662 C   0  0  0  0  0  0  0  0  0  0  0  0
  -13.5759  -26.2588   16.4430 C   0  0  0  0  0  0  0  0  0  0  0  0
  -14.0645  -26.6849   15.2906 N   0  0  0  0  0  0  0  0  0  0  0  0
  -13.0268  -27.2654   14.6095 N   0  0  0  0  0  0  0  0  0  0  0  0
  -11.9044  -27.1841   15.3039 N   0  0  0  0  0  0  0  0  0  0  0  0
  -12.2451  -26.5780   16.4474 N   0  0  0  0  0  0  0  0  0  0  0  0
  -12.5645  -22.4180   21.0204 H   0  0  0  0  0  0  0  0  0  0  0  0
  -13.9688  -22.9433   23.9032 H   0  0  0  0  0  0  0  0  0  0  0  0
  -14.4521  -25.3784   25.9530 H   0  0  0  0  0  0  0  0  0  0  0  0
  -10.5338  -27.3667   22.1717 H   0  0  0  0  0  0  0  0  0  0  0  0
  -10.0182  -25.7615   27.1325 H   0  0  0  0  0  0  0  0  0  0  0  0
   -9.3305  -24.6059   25.8455 H   0  0  0  0  0  0  0  0  0  0  0  0
   -9.3192  -23.3007   27.7522 H   0  0  0  0  0  0  0  0  0  0  0  0
  -10.2491  -24.3559   28.5811 H   0  0  0  0  0  0  0  0  0  0  0  0
  -11.3451  -22.0374   26.9958 H   0  0  0  0  0  0  0  0  0  0  0  0
  -11.6984  -22.5655   28.5696 H   0  0  0  0  0  0  0  0  0  0  0  0
  -13.2488  -23.0054   26.3934 H   0  0  0  0  0  0  0  0  0  0  0  0
  -13.1865  -24.0285   27.8327 H   0  0  0  0  0  0  0  0  0  0  0  0
  -14.0462  -27.2842   18.9506 H   0  0  0  0  0  0  0  0  0  0  0  0
  -14.7473  -26.4895   20.2190 H   0  0  0  0  0  0  0  0  0  0  0  0
  -16.8356  -26.3393   19.1118 H   0  0  0  0  0  0  0  0  0  0  0  0
  -16.0768  -27.5475   18.0804 H   0  0  0  0  0  0  0  0  0  0  0  0
  -16.2213  -25.8612   16.4405 H   0  0  0  0  0  0  0  0  0  0  0  0
  -16.3042  -24.5868   17.6601 H   0  0  0  0  0  0  0  0  0  0  0  0
  -14.1278  -24.4098   17.0502 H   0  0  0  0  0  0  0  0  0  0  0  0
  -11.5407  -26.4199   17.1646 H   0  0  0  0  0  0  0  0  0  0  0  0
  1  2  2  0
  2  3  1  0
  3  4  2  0
  4  5  1  0
  5  6  2  0
  6  7  1  0
  7  8  1  0
  8  9  2  0
  9 10  1  0
 10 11  2  0
  9 12  1  0
 12 13  1  0
 13 14  1  0
 14 15  1  0
  2 16  1  0
 16 17  1  0
 17 18  1  0
 18 19  1  0
 19 20  1  0
 20 21  1  0
 21 22  2  0
 22 23  1  0
 23 24  2  0
 24 25  1  0
 11  3  1  0
 20 16  1  0
 25 21  1  0
 10  6  1  0
 15  8  1  0
  4 26  1  0
  5 27  1  0
  7 28  1  0
 11 29  1  0
 12 30  1  0
 12 31  1  0
 13 32  1  0
 13 33  1  0
 14 34  1  0
 14 35  1  0
 15 36  1  0
 15 37  1  0
 17 38  1  0
 17 39  1  0
 18 40  1  0
 18 41  1  0
 19 42  1  0
 19 43  1  0
 20 44  1  0
 25 45  1  0
M  END
>  <Energy>  (9) 
1063.8353569932715

>  <compound_id>  (9) 
51703

>  <target_id>  (9) 
1

>  <reference_id>  (9) 
30

>  <inspiration_ids>  (9) 
[30, 39]

>  <energy_score>  (9) 
1015.2538653314054

>  <distance_score>  (9) 
4.88968271500975

>  <path>  (9) 
/opt/xchem-fragalysis-2/maxwin/BulkDock/SCRATCH/511021/C51703-P30/C51703-P30.minimised.mol

>  <scratch_subdir>  (9) 
/opt/xchem-fragalysis-2/maxwin/BulkDock/SCRATCH/511021/C51703-P30

>  <fragmenstein_runtime>  (9) 
12.550124645233154

>  <fragmenstein_outcome>  (9) 
too moved

>  <fragmenstein_mode>  (9) 
expansion

>  <fragmenstein_error>  (9) 


$$$$
C51703-P39
     RDKit          3D

 45 49  0  0  0  0  0  0  0  0999 V2000
  -11.2808  -26.7427   17.9442 O   0  0  0  0  0  0  0  0  0  0  0  0
  -12.0648  -25.9095   18.2999 C   0  0  0  0  0  0  0  0  0  0  0  0
  -11.4943  -25.0961   20.1846 C   0  0  0  0  0  0  0  0  0  0  0  0
  -11.6503  -23.3258   20.8075 C   0  0  0  0  0  0  0  0  0  0  0  0
  -11.4240  -23.0331   22.6183 C   0  0  0  0  0  0  0  0  0  0  0  0
  -11.1213  -24.2711   23.9609 C   0  0  0  0  0  0  0  0  0  0  0  0
  -11.6028  -24.0977   25.2529 N   0  0  0  0  0  0  0  0  0  0  0  0
  -12.1473  -25.2642   25.7206 C   0  0  0  0  0  0  0  0  0  0  0  0
  -11.4708  -26.3336   25.0940 C   0  0  0  0  0  0  0  0  0  0  0  0
  -11.5168  -26.1043   23.5840 C   0  0  0  0  0  0  0  0  0  0  0  0
  -11.1265  -26.5927   21.5419 C   0  0  0  0  0  0  0  0  0  0  0  0
  -10.6927  -27.1032   26.1320 C   0  0  0  0  0  0  0  0  0  0  0  0
  -10.4253  -26.2222   27.4241 C   0  0  0  0  0  0  0  0  0  0  0  0
  -11.7552  -25.8789   28.1049 C   0  0  0  0  0  0  0  0  0  0  0  0
  -12.7253  -25.2388   27.1120 C   0  0  0  0  0  0  0  0  0  0  0  0
  -13.3006  -25.4716   17.2638 N   0  0  0  0  0  0  0  0  0  0  0  0
  -14.4991  -26.3033   17.4798 C   0  0  0  0  0  0  0  0  0  0  0  0
  -15.6729  -25.8411   16.5801 C   0  0  0  0  0  0  0  0  0  0  0  0
  -14.9469  -25.3347   15.3767 C   0  0  0  0  0  0  0  0  0  0  0  0
  -13.6133  -25.8757   15.7733 C   0  0  0  0  0  0  0  0  0  0  0  0
  -12.5039  -25.6524   14.7944 C   0  0  0  0  0  0  0  0  0  0  0  0
  -12.5812  -25.1903   13.5610 N   0  0  0  0  0  0  0  0  0  0  0  0
  -11.3111  -25.2614   13.0462 N   0  0  0  0  0  0  0  0  0  0  0  0
  -10.4703  -25.7843   13.9263 N   0  0  0  0  0  0  0  0  0  0  0  0
  -11.2076  -26.0376   15.0153 N   0  0  0  0  0  0  0  0  0  0  0  0
  -12.0376  -22.4815   20.2472 H   0  0  0  0  0  0  0  0  0  0  0  0
  -11.6344  -22.0253   22.9858 H   0  0  0  0  0  0  0  0  0  0  0  0
  -11.8156  -23.1822   25.6312 H   0  0  0  0  0  0  0  0  0  0  0  0
  -10.9078  -27.6857   21.4459 H   0  0  0  0  0  0  0  0  0  0  0  0
  -11.2685  -27.8964   26.5672 H   0  0  0  0  0  0  0  0  0  0  0  0
   -9.7858  -27.5344   25.7266 H   0  0  0  0  0  0  0  0  0  0  0  0
   -9.7787  -26.7295   28.1401 H   0  0  0  0  0  0  0  0  0  0  0  0
   -9.9254  -25.2791   27.1867 H   0  0  0  0  0  0  0  0  0  0  0  0
  -12.2032  -26.7909   28.5185 H   0  0  0  0  0  0  0  0  0  0  0  0
  -11.5833  -25.2077   28.9545 H   0  0  0  0  0  0  0  0  0  0  0  0
  -12.9280  -24.2097   27.4272 H   0  0  0  0  0  0  0  0  0  0  0  0
  -13.6840  -25.7697   27.1184 H   0  0  0  0  0  0  0  0  0  0  0  0
  -14.2903  -27.3708   17.3038 H   0  0  0  0  0  0  0  0  0  0  0  0
  -14.7430  -26.2304   18.5235 H   0  0  0  0  0  0  0  0  0  0  0  0
  -16.2782  -25.0303   16.9808 H   0  0  0  0  0  0  0  0  0  0  0  0
  -16.3402  -26.6806   16.3595 H   0  0  0  0  0  0  0  0  0  0  0  0
  -15.3333  -25.7408   14.4376 H   0  0  0  0  0  0  0  0  0  0  0  0
  -14.9526  -24.2411   15.3231 H   0  0  0  0  0  0  0  0  0  0  0  0
  -13.6093  -26.9829   15.6697 H   0  0  0  0  0  0  0  0  0  0  0  0
  -10.7803  -26.4397   15.8464 H   0  0  0  0  0  0  0  0  0  0  0  0
  1  2  2  0
  2  3  1  0
  3  4  2  0
  4  5  1  0
  5  6  2  0
  6  7  1  0
  7  8  1  0
  8  9  2  0
  9 10  1  0
 10 11  2  0
  9 12  1  0
 12 13  1  0
 13 14  1  0
 14 15  1  0
  2 16  1  0
 16 17  1  0
 17 18  1  0
 18 19  1  0
 19 20  1  0
 20 21  1  0
 21 22  2  0
 22 23  1  0
 23 24  2  0
 24 25  1  0
 11  3  1  0
 20 16  1  0
 25 21  1  0
 10  6  1  0
 15  8  1  0
  4 26  1  0
  5 27  1  0
  7 28  1  0
 11 29  1  0
 12 30  1  0
 12 31  1  0
 13 32  1  0
 13 33  1  0
 14 34  1  0
 14 35  1  0
 15 36  1  0
 15 37  1  0
 17 38  1  0
 17 39  1  0
 18 40  1  0
 18 41  1  0
 19 42  1  0
 19 43  1  0
 20 44  1  0
 25 45  1  0
M  END
>  <Energy>  (10) 
899.36549059525044

>  <compound_id>  (10) 
51703

>  <target_id>  (10) 
1

>  <reference_id>  (10) 
39

>  <inspiration_ids>  (10) 
[30, 39]

>  <energy_score>  (10) 
850.7839989333893

>  <distance_score>  (10) 
4.132519139898353

>  <path>  (10) 
/opt/xchem-fragalysis-2/maxwin/BulkDock/SCRATCH/511021/C51703-P39/C51703-P39.minimised.mol

>  <scratch_subdir>  (10) 
/opt/xchem-fragalysis-2/maxwin/BulkDock/SCRATCH/511021/C51703-P39

>  <fragmenstein_runtime>  (10) 
7.915573596954346

>  <fragmenstein_outcome>  (10) 
too moved

>  <fragmenstein_mode>  (10) 
expansion

>  <fragmenstein_error>  (10) 


$$$$
C57997-P30
     RDKit          3D

 40 43  0  0  0  0  0  0  0  0999 V2000
   -6.1420  -14.0723    3.0135 O   0  0  0  0  0  0  0  0  0  0  0  0
   -5.0491  -14.1506    3.5171 C   0  0  0  0  0  0  0  0  0  0  0  0
   -3.9328  -13.1099    3.0835 C   0  0  0  0  0  0  0  0  0  0  0  0
   -4.0192  -11.7487    3.5307 O   0  0  0  0  0  0  0  0  0  0  0  0
   -4.5308  -10.7094    2.7630 C   0  0  0  0  0  0  0  0  0  0  0  0
   -5.4328  -11.0021    1.6585 C   0  0  0  0  0  0  0  0  0  0  0  0
   -5.9655   -9.9950    0.9454 C   0  0  0  0  0  0  0  0  0  0  0  0
   -5.6748   -8.6723    1.2573 N   0  0  0  0  0  0  0  0  0  0  0  0
   -6.1857   -7.5640    0.6560 N   0  0  0  0  0  0  0  0  0  0  0  0
   -5.5892   -6.5445    1.2715 C   0  0  0  0  0  0  0  0  0  0  0  0
   -4.7118   -6.9689    2.2768 C   0  0  0  0  0  0  0  0  0  0  0  0
   -4.8017   -8.3417    2.2915 C   0  0  0  0  0  0  0  0  0  0  0  0
   -4.2386   -9.4174    3.0611 C   0  0  0  0  0  0  0  0  0  0  0  0
   -4.5548  -15.0263    4.5615 N   0  0  0  0  0  0  0  0  0  0  0  0
   -3.9780  -16.2787    3.9622 C   0  0  0  0  0  0  0  0  0  0  0  0
   -3.4168  -17.2535    4.9918 C   0  0  0  0  0  0  0  0  0  0  0  0
   -4.3094  -16.9823    6.1472 C   0  0  0  0  0  0  0  0  0  0  0  0
   -5.2947  -16.0648    5.4493 C   0  0  0  0  0  0  0  0  0  0  0  0
   -6.5603  -16.7780    4.9460 C   0  0  0  0  0  0  0  0  0  0  0  0
   -6.6424  -18.0620    4.2897 C   0  0  0  0  0  0  0  0  0  0  0  0
   -7.9352  -18.4732    4.0502 C   0  0  0  0  0  0  0  0  0  0  0  0
   -9.0730  -17.4028    4.7274 S   0  0  0  0  0  0  0  0  0  0  0  0
   -7.8413  -16.3067    5.1794 C   0  0  0  0  0  0  0  0  0  0  0  0
   -3.8221  -13.1646    1.9937 H   0  0  0  0  0  0  0  0  0  0  0  0
   -2.9790  -13.4789    3.4803 H   0  0  0  0  0  0  0  0  0  0  0  0
   -5.7131  -12.0227    1.4283 H   0  0  0  0  0  0  0  0  0  0  0  0
   -6.6582  -10.1479    0.1289 H   0  0  0  0  0  0  0  0  0  0  0  0
   -5.8046   -5.5347    0.9475 H   0  0  0  0  0  0  0  0  0  0  0  0
   -4.0995   -6.3424    2.8984 H   0  0  0  0  0  0  0  0  0  0  0  0
   -3.5822   -9.1898    3.8933 H   0  0  0  0  0  0  0  0  0  0  0  0
   -3.1364  -15.9464    3.3364 H   0  0  0  0  0  0  0  0  0  0  0  0
   -4.6542  -16.7288    3.2216 H   0  0  0  0  0  0  0  0  0  0  0  0
   -2.3752  -17.0213    5.2388 H   0  0  0  0  0  0  0  0  0  0  0  0
   -3.4584  -18.2862    4.6339 H   0  0  0  0  0  0  0  0  0  0  0  0
   -4.7351  -17.8835    6.5883 H   0  0  0  0  0  0  0  0  0  0  0  0
   -3.7606  -16.4440    6.9291 H   0  0  0  0  0  0  0  0  0  0  0  0
   -5.6804  -15.4254    6.2572 H   0  0  0  0  0  0  0  0  0  0  0  0
   -5.7939  -18.6673    3.9977 H   0  0  0  0  0  0  0  0  0  0  0  0
   -8.2642  -19.3802    3.5622 H   0  0  0  0  0  0  0  0  0  0  0  0
   -8.1194  -15.3645    5.6348 H   0  0  0  0  0  0  0  0  0  0  0  0
  1  2  2  0
  2  3  1  0
  3  4  1  0
  4  5  1  0
  5  6  1  0
  6  7  2  0
  7  8  1  0
  8  9  1  0
  9 10  2  0
 10 11  1  0
 11 12  2  0
 12 13  1  0
  2 14  1  0
 14 15  1  0
 15 16  1  0
 16 17  1  0
 17 18  1  0
 18 19  1  0
 19 20  1  0
 20 21  2  0
 21 22  1  0
 22 23  1  0
 13  5  2  0
 18 14  1  0
 23 19  2  0
 12  8  1  0
  3 24  1  0
  3 25  1  0
  6 26  1  0
  7 27  1  0
 10 28  1  0
 11 29  1  0
 13 30  1  0
 15 31  1  0
 15 32  1  0
 16 33  1  0
 16 34  1  0
 17 35  1  0
 17 36  1  0
 18 37  1  0
 20 38  1  0
 21 39  1  0
 23 40  1  0
M  END
>  <Energy>  (11) 
126.39313512465273

>  <compound_id>  (11) 
57997

>  <target_id>  (11) 
1

>  <reference_id>  (11) 
30

>  <inspiration_ids>  (11) 
[30, 69]

>  <energy_score>  (11) 
4.871559059522099

>  <distance_score>  (11) 
12.927218387537431

>  <path>  (11) 
/opt/xchem-fragalysis-2/maxwin/BulkDock/SCRATCH/511021/C57997-P30/C57997-P30.minimised.mol

>  <scratch_subdir>  (11) 
/opt/xchem-fragalysis-2/maxwin/BulkDock/SCRATCH/511021/C57997-P30

>  <fragmenstein_runtime>  (11) 
18.752597093582153

>  <fragmenstein_outcome>  (11) 
too moved

>  <fragmenstein_mode>  (11) 
expansion

>  <fragmenstein_error>  (11) 


$$$$
C57997-P69
     RDKit          3D

 40 43  0  0  0  0  0  0  0  0999 V2000
   -9.2206  -12.5073   13.0560 O   0  0  0  0  0  0  0  0  0  0  0  0
   -9.9574  -13.2290   12.3939 C   0  0  0  0  0  0  0  0  0  0  0  0
  -10.2026  -12.6129   10.6206 C   0  0  0  0  0  0  0  0  0  0  0  0
  -10.4161  -11.4518    9.5599 O   0  0  0  0  0  0  0  0  0  0  0  0
   -9.5789  -10.7529    8.1828 C   0  0  0  0  0  0  0  0  0  0  0  0
   -9.8717   -9.4033    8.1005 C   0  0  0  0  0  0  0  0  0  0  0  0
   -8.8892   -8.5168    8.1356 C   0  0  0  0  0  0  0  0  0  0  0  0
   -7.5711   -8.7041    8.4266 N   0  0  0  0  0  0  0  0  0  0  0  0
   -6.8347   -8.0808    9.3454 N   0  0  0  0  0  0  0  0  0  0  0  0
   -5.6567   -8.5871    9.1336 C   0  0  0  0  0  0  0  0  0  0  0  0
   -5.7937   -9.4238    7.9411 C   0  0  0  0  0  0  0  0  0  0  0  0
   -7.0195   -9.9980    8.0669 C   0  0  0  0  0  0  0  0  0  0  0  0
   -8.3795  -11.2265    7.7250 C   0  0  0  0  0  0  0  0  0  0  0  0
  -10.6474  -14.6883   12.8001 N   0  0  0  0  0  0  0  0  0  0  0  0
  -12.0611  -14.4834   13.4634 C   0  0  0  0  0  0  0  0  0  0  0  0
  -12.7677  -15.6906   14.0264 C   0  0  0  0  0  0  0  0  0  0  0  0
  -11.6132  -16.5142   14.4220 C   0  0  0  0  0  0  0  0  0  0  0  0
  -10.4544  -15.5844   14.0757 C   0  0  0  0  0  0  0  0  0  0  0  0
   -9.7013  -15.1487   15.3088 C   0  0  0  0  0  0  0  0  0  0  0  0
  -10.0502  -14.1285   16.2416 C   0  0  0  0  0  0  0  0  0  0  0  0
   -9.2329  -14.1079   17.3528 C   0  0  0  0  0  0  0  0  0  0  0  0
   -8.0593  -15.3465   17.3095 S   0  0  0  0  0  0  0  0  0  0  0  0
   -8.6039  -15.8603   15.7828 C   0  0  0  0  0  0  0  0  0  0  0  0
  -11.2032  -12.9208   10.7621 H   0  0  0  0  0  0  0  0  0  0  0  0
   -9.7046  -13.2571    9.9191 H   0  0  0  0  0  0  0  0  0  0  0  0
  -10.6157   -9.2760    8.8769 H   0  0  0  0  0  0  0  0  0  0  0  0
   -9.1275   -7.5503    7.8129 H   0  0  0  0  0  0  0  0  0  0  0  0
   -4.8849   -8.3122    9.8512 H   0  0  0  0  0  0  0  0  0  0  0  0
   -5.0174   -9.7423    7.2521 H   0  0  0  0  0  0  0  0  0  0  0  0
   -8.5271  -12.2868    7.7014 H   0  0  0  0  0  0  0  0  0  0  0  0
  -12.0970  -13.9045   14.3831 H   0  0  0  0  0  0  0  0  0  0  0  0
  -12.7528  -14.1251   12.7159 H   0  0  0  0  0  0  0  0  0  0  0  0
  -13.5012  -16.0265   13.3044 H   0  0  0  0  0  0  0  0  0  0  0  0
  -13.3713  -15.4214   14.9044 H   0  0  0  0  0  0  0  0  0  0  0  0
  -11.5033  -17.4404   13.8679 H   0  0  0  0  0  0  0  0  0  0  0  0
  -11.6522  -16.7920   15.4815 H   0  0  0  0  0  0  0  0  0  0  0  0
   -9.7716  -16.3425   13.6661 H   0  0  0  0  0  0  0  0  0  0  0  0
  -10.8690  -13.4311   16.1331 H   0  0  0  0  0  0  0  0  0  0  0  0
   -9.2815  -13.4328   18.1958 H   0  0  0  0  0  0  0  0  0  0  0  0
   -8.1043  -16.6893   15.3042 H   0  0  0  0  0  0  0  0  0  0  0  0
  1  2  2  0
  2  3  1  0
  3  4  1  0
  4  5  1  0
  5  6  1  0
  6  7  2  0
  7  8  1  0
  8  9  1  0
  9 10  2  0
 10 11  1  0
 11 12  2  0
 12 13  1  0
  2 14  1  0
 14 15  1  0
 15 16  1  0
 16 17  1  0
 17 18  1  0
 18 19  1  0
 19 20  1  0
 20 21  2  0
 21 22  1  0
 22 23  1  0
 13  5  2  0
 18 14  1  0
 23 19  2  0
 12  8  1  0
  3 24  1  0
  3 25  1  0
  6 26  1  0
  7 27  1  0
 10 28  1  0
 11 29  1  0
 13 30  1  0
 15 31  1  0
 15 32  1  0
 16 33  1  0
 16 34  1  0
 17 35  1  0
 17 36  1  0
 18 37  1  0
 20 38  1  0
 21 39  1  0
 23 40  1  0
M  END
>  <Energy>  (12) 
467.48179385482962

>  <compound_id>  (12) 
57997

>  <target_id>  (12) 
1

>  <reference_id>  (12) 
69

>  <inspiration_ids>  (12) 
[30, 69]

>  <energy_score>  (12) 
345.9602177897019

>  <distance_score>  (12) 
10.28098597664398

>  <path>  (12) 
/opt/xchem-fragalysis-2/maxwin/BulkDock/SCRATCH/511021/C57997-P69/C57997-P69.minimised.mol

>  <scratch_subdir>  (12) 
/opt/xchem-fragalysis-2/maxwin/BulkDock/SCRATCH/511021/C57997-P69

>  <fragmenstein_runtime>  (12) 
18.801297903060913

>  <fragmenstein_outcome>  (12) 
too moved

>  <fragmenstein_mode>  (12) 
expansion

>  <fragmenstein_error>  (12) 


$$$$
C58012-P30
     RDKit          3D

 49 51  0  0  0  0  0  0  0  0999 V2000
   -8.2713  -17.3845   14.1128 C   0  0  0  0  0  0  0  0  0  0  0  0
   -9.5329  -16.6664   13.3672 C   0  0  0  0  0  0  0  0  0  0  0  0
  -10.0245  -14.8205   13.2692 C   0  0  0  0  0  0  0  0  0  0  0  0
   -9.8832  -13.1597   12.7989 N   0  0  0  0  0  0  0  0  0  0  0  0
   -9.4239  -11.8584   13.6457 C   0  0  0  0  0  0  0  0  0  0  0  0
   -8.9964  -11.8237   14.7583 O   0  0  0  0  0  0  0  0  0  0  0  0
   -9.6780  -10.0987   13.0086 C   0  0  0  0  0  0  0  0  0  0  0  0
  -10.7342   -9.1007   14.1053 N   0  0  0  0  0  0  0  0  0  0  0  0
  -11.7837   -7.4934   14.3456 C   0  0  0  0  0  0  0  0  0  0  0  0
  -11.5854   -6.2222   15.2166 C   0  0  0  0  0  0  0  0  0  0  0  0
  -11.1512   -5.4588   14.0524 C   0  0  0  0  0  0  0  0  0  0  0  0
  -10.4494   -4.4908   13.5268 N   0  0  0  0  0  0  0  0  0  0  0  0
  -10.4466   -3.8255   12.3509 C   0  0  0  0  0  0  0  0  0  0  0  0
   -9.7681   -4.2478   11.4486 O   0  0  0  0  0  0  0  0  0  0  0  0
  -11.2110   -2.4149   12.1439 C   0  0  0  0  0  0  0  0  0  0  0  0
  -12.2804   -1.9029   12.9145 C   0  0  0  0  0  0  0  0  0  0  0  0
  -12.9060   -0.6857   12.5184 C   0  0  0  0  0  0  0  0  0  0  0  0
  -12.5632    0.0234   11.3488 C   0  0  0  0  0  0  0  0  0  0  0  0
  -13.1754    1.1658   10.9950 N   0  0  0  0  0  0  0  0  0  0  0  0
  -12.7660    1.7962    9.8606 C   0  0  0  0  0  0  0  0  0  0  0  0
  -11.7785    1.3348    9.0156 C   0  0  0  0  0  0  0  0  0  0  0  0
  -11.1706    0.1488    9.3636 C   0  0  0  0  0  0  0  0  0  0  0  0
  -11.5545   -0.5017   10.5447 C   0  0  0  0  0  0  0  0  0  0  0  0
  -10.9060   -1.6653   10.9580 C   0  0  0  0  0  0  0  0  0  0  0  0
  -11.8523   -5.7751   13.4690 C   0  0  0  0  0  0  0  0  0  0  0  0
   -7.5969  -16.6736   14.6039 H   0  0  0  0  0  0  0  0  0  0  0  0
   -8.6247  -18.1321   14.8350 H   0  0  0  0  0  0  0  0  0  0  0  0
   -7.6624  -17.9667   13.4095 H   0  0  0  0  0  0  0  0  0  0  0  0
   -9.2898  -17.2774   12.5450 H   0  0  0  0  0  0  0  0  0  0  0  0
  -10.4599  -17.1585   13.6319 H   0  0  0  0  0  0  0  0  0  0  0  0
  -11.1132  -14.9172   13.2256 H   0  0  0  0  0  0  0  0  0  0  0  0
   -9.7110  -14.5677   14.2733 H   0  0  0  0  0  0  0  0  0  0  0  0
  -10.2791  -12.8601   11.9152 H   0  0  0  0  0  0  0  0  0  0  0  0
   -8.7203   -9.5936   13.0966 H   0  0  0  0  0  0  0  0  0  0  0  0
  -10.1686  -10.0450   12.0650 H   0  0  0  0  0  0  0  0  0  0  0  0
   -9.9673   -8.9626   14.7471 H   0  0  0  0  0  0  0  0  0  0  0  0
  -12.7716   -7.9402   14.4407 H   0  0  0  0  0  0  0  0  0  0  0  0
  -12.5761   -5.8580   15.5912 H   0  0  0  0  0  0  0  0  0  0  0  0
  -10.8099   -5.9391   15.9681 H   0  0  0  0  0  0  0  0  0  0  0  0
  -11.3442   -4.5471   14.8041 H   0  0  0  0  0  0  0  0  0  0  0  0
  -10.0822   -5.8704   14.2569 H   0  0  0  0  0  0  0  0  0  0  0  0
  -12.6048   -2.4134   13.8159 H   0  0  0  0  0  0  0  0  0  0  0  0
  -13.6978   -0.2758   13.1436 H   0  0  0  0  0  0  0  0  0  0  0  0
  -13.2887    2.7247    9.6452 H   0  0  0  0  0  0  0  0  0  0  0  0
  -11.4994    1.8773    8.1211 H   0  0  0  0  0  0  0  0  0  0  0  0
  -10.3863   -0.2635    8.7324 H   0  0  0  0  0  0  0  0  0  0  0  0
  -10.1653   -2.0287   10.2576 H   0  0  0  0  0  0  0  0  0  0  0  0
  -12.8939   -5.1837   13.6496 H   0  0  0  0  0  0  0  0  0  0  0  0
  -11.9961   -5.9878   12.3639 H   0  0  0  0  0  0  0  0  0  0  0  0
  1  2  1  0
  2  3  1  0
  3  4  1  0
  4  5  1  0
  5  6  2  0
  5  7  1  0
  7  8  1  0
  8  9  1  0
  9 10  1  0
 10 11  1  0
 11 12  1  0
 12 13  1  0
 13 14  2  0
 13 15  1  0
 15 16  2  0
 16 17  1  0
 17 18  2  0
 18 19  1  0
 19 20  2  0
 20 21  1  0
 21 22  2  0
 22 23  1  0
 23 24  2  0
 12 25  1  0
 25  9  1  0
 24 15  1  0
 23 18  1  0
  1 26  1  0
  1 27  1  0
  1 28  1  0
  2 29  1  0
  2 30  1  0
  3 31  1  0
  3 32  1  0
  4 33  1  0
  7 34  1  0
  7 35  1  0
  8 36  1  0
  9 37  1  0
 10 38  1  0
 10 39  1  0
 11 40  1  0
 11 41  1  0
 16 42  1  0
 17 43  1  0
 20 44  1  0
 21 45  1  0
 22 46  1  0
 24 47  1  0
 25 48  1  0
 25 49  1  0
M  END
>  <Energy>  (13) 
1084.6356585536657

>  <compound_id>  (13) 
58012

>  <target_id>  (13) 
1

>  <reference_id>  (13) 
30

>  <inspiration_ids>  (13) 
[30, 69]

>  <energy_score>  (13) 
980.6922626879752

>  <distance_score>  (13) 
10.219874964843664

>  <path>  (13) 
/opt/xchem-fragalysis-2/maxwin/BulkDock/SCRATCH/511021/C58012-P30/C58012-P30.minimised.mol

>  <scratch_subdir>  (13) 
/opt/xchem-fragalysis-2/maxwin/BulkDock/SCRATCH/511021/C58012-P30

>  <fragmenstein_runtime>  (13) 
32.2126784324646

>  <fragmenstein_outcome>  (13) 
too moved

>  <fragmenstein_mode>  (13) 
expansion

>  <fragmenstein_error>  (13) 


$$$$
C58012-P69
     RDKit          3D

 49 51  0  0  0  0  0  0  0  0999 V2000
   -8.6386  -21.1888   13.0925 C   0  0  0  0  0  0  0  0  0  0  0  0
   -8.3638  -20.8290   14.5463 C   0  0  0  0  0  0  0  0  0  0  0  0
   -7.5663  -19.5269   14.7559 C   0  0  0  0  0  0  0  0  0  0  0  0
   -8.2317  -18.3087   14.3401 N   0  0  0  0  0  0  0  0  0  0  0  0
   -9.6057  -18.0463   14.0382 C   0  0  0  0  0  0  0  0  0  0  0  0
  -10.5645  -18.7430   14.1274 O   0  0  0  0  0  0  0  0  0  0  0  0
   -9.8823  -16.6401   13.3806 C   0  0  0  0  0  0  0  0  0  0  0  0
  -10.2819  -14.9603   13.6061 N   0  0  0  0  0  0  0  0  0  0  0  0
  -10.3370  -13.8631   12.2990 C   0  0  0  0  0  0  0  0  0  0  0  0
   -9.4184  -12.8362   12.6771 C   0  0  0  0  0  0  0  0  0  0  0  0
  -10.1593  -12.5745   10.8553 C   0  0  0  0  0  0  0  0  0  0  0  0
  -10.4604  -11.6560    9.6998 N   0  0  0  0  0  0  0  0  0  0  0  0
  -10.2607   -9.8253    9.3739 C   0  0  0  0  0  0  0  0  0  0  0  0
  -11.2618   -9.2530    9.7324 O   0  0  0  0  0  0  0  0  0  0  0  0
   -8.9624   -8.4819    8.3911 C   0  0  0  0  0  0  0  0  0  0  0  0
   -7.4119   -7.9202    8.8722 C   0  0  0  0  0  0  0  0  0  0  0  0
   -7.1496   -6.0443    8.9472 C   0  0  0  0  0  0  0  0  0  0  0  0
   -7.6409   -5.0097    7.8834 C   0  0  0  0  0  0  0  0  0  0  0  0
   -7.0829   -3.8060    7.5876 N   0  0  0  0  0  0  0  0  0  0  0  0
   -7.5305   -3.0209    6.5873 C   0  0  0  0  0  0  0  0  0  0  0  0
   -8.5673   -3.3753    5.7749 C   0  0  0  0  0  0  0  0  0  0  0  0
   -9.1479   -4.6054    6.0194 C   0  0  0  0  0  0  0  0  0  0  0  0
   -8.6705   -5.4622    7.0411 C   0  0  0  0  0  0  0  0  0  0  0  0
   -9.3565   -6.8159    7.4912 C   0  0  0  0  0  0  0  0  0  0  0  0
   -9.8162  -12.0787   11.4440 C   0  0  0  0  0  0  0  0  0  0  0  0
   -9.2230  -22.1122   13.0360 H   0  0  0  0  0  0  0  0  0  0  0  0
   -7.6994  -21.3478   12.5533 H   0  0  0  0  0  0  0  0  0  0  0  0
   -9.1933  -20.4054   12.5731 H   0  0  0  0  0  0  0  0  0  0  0  0
   -9.3045  -20.7804   15.0943 H   0  0  0  0  0  0  0  0  0  0  0  0
   -7.7891  -21.6454   14.9952 H   0  0  0  0  0  0  0  0  0  0  0  0
   -6.6150  -19.5730   14.2155 H   0  0  0  0  0  0  0  0  0  0  0  0
   -7.3383  -19.4075   15.8203 H   0  0  0  0  0  0  0  0  0  0  0  0
   -7.6988  -17.4554   14.2217 H   0  0  0  0  0  0  0  0  0  0  0  0
   -8.9218  -16.6767   12.9368 H   0  0  0  0  0  0  0  0  0  0  0  0
  -10.7344  -16.9651   12.8492 H   0  0  0  0  0  0  0  0  0  0  0  0
  -11.2833  -15.0508   13.8316 H   0  0  0  0  0  0  0  0  0  0  0  0
  -11.4027  -13.7800   12.4096 H   0  0  0  0  0  0  0  0  0  0  0  0
   -8.3552  -13.0006   12.7522 H   0  0  0  0  0  0  0  0  0  0  0  0
   -9.5794  -12.1644   13.5302 H   0  0  0  0  0  0  0  0  0  0  0  0
   -9.7262  -13.2839   10.0389 H   0  0  0  0  0  0  0  0  0  0  0  0
  -11.2247  -13.0057   10.8374 H   0  0  0  0  0  0  0  0  0  0  0  0
   -6.8691   -8.3404    9.7078 H   0  0  0  0  0  0  0  0  0  0  0  0
   -6.4071   -5.7608    9.6484 H   0  0  0  0  0  0  0  0  0  0  0  0
   -7.0138   -2.0739    6.4716 H   0  0  0  0  0  0  0  0  0  0  0  0
   -8.9239   -2.7252    4.9865 H   0  0  0  0  0  0  0  0  0  0  0  0
   -9.9792   -4.9257    5.3980 H   0  0  0  0  0  0  0  0  0  0  0  0
   -9.7169   -6.1029    8.2422 H   0  0  0  0  0  0  0  0  0  0  0  0
   -8.4792  -12.2549   11.2369 H   0  0  0  0  0  0  0  0  0  0  0  0
   -9.9354  -11.0677   12.1005 H   0  0  0  0  0  0  0  0  0  0  0  0
  1  2  1  0
  2  3  1  0
  3  4  1  0
  4  5  1  0
  5  6  2  0
  5  7  1  0
  7  8  1  0
  8  9  1  0
  9 10  1  0
 10 11  1  0
 11 12  1  0
 12 13  1  0
 13 14  2  0
 13 15  1  0
 15 16  2  0
 16 17  1  0
 17 18  2  0
 18 19  1  0
 19 20  2  0
 20 21  1  0
 21 22  2  0
 22 23  1  0
 23 24  2  0
 12 25  1  0
 25  9  1  0
 24 15  1  0
 23 18  1  0
  1 26  1  0
  1 27  1  0
  1 28  1  0
  2 29  1  0
  2 30  1  0
  3 31  1  0
  3 32  1  0
  4 33  1  0
  7 34  1  0
  7 35  1  0
  8 36  1  0
  9 37  1  0
 10 38  1  0
 10 39  1  0
 11 40  1  0
 11 41  1  0
 16 42  1  0
 17 43  1  0
 20 44  1  0
 21 45  1  0
 22 46  1  0
 24 47  1  0
 25 48  1  0
 25 49  1  0
M  END
>  <Energy>  (14) 
1543.2294413288348

>  <compound_id>  (14) 
58012

>  <target_id>  (14) 
1

>  <reference_id>  (14) 
69

>  <inspiration_ids>  (14) 
[30, 69]

>  <energy_score>  (14) 
1439.2860454631361

>  <distance_score>  (14) 
7.860658606674441

>  <path>  (14) 
/opt/xchem-fragalysis-2/maxwin/BulkDock/SCRATCH/511021/C58012-P69/C58012-P69.minimised.mol

>  <scratch_subdir>  (14) 
/opt/xchem-fragalysis-2/maxwin/BulkDock/SCRATCH/511021/C58012-P69

>  <fragmenstein_runtime>  (14) 
26.681262969970703

>  <fragmenstein_outcome>  (14) 
too moved

>  <fragmenstein_mode>  (14) 
expansion

>  <fragmenstein_error>  (14) 


$$$$
C58016-P30
     RDKit          3D

 39 42  0  0  0  0  0  0  0  0999 V2000
  -11.8935  -14.5648   13.1153 O   0  0  0  0  0  0  0  0  0  0  0  0
  -10.7901  -14.7968   12.6100 C   0  0  0  0  0  0  0  0  0  0  0  0
  -10.2295  -13.7520   11.7075 O   0  0  0  0  0  0  0  0  0  0  0  0
  -10.1681  -12.7270   10.2238 C   0  0  0  0  0  0  0  0  0  0  0  0
  -10.5947  -11.2418    9.7982 C   0  0  0  0  0  0  0  0  0  0  0  0
   -9.8274  -10.3534    8.1728 C   0  0  0  0  0  0  0  0  0  0  0  0
   -8.5401  -10.8818    8.0952 N   0  0  0  0  0  0  0  0  0  0  0  0
   -8.1710   -8.9550    8.4925 C   0  0  0  0  0  0  0  0  0  0  0  0
   -7.0557   -8.1137    9.1068 C   0  0  0  0  0  0  0  0  0  0  0  0
   -6.9152   -6.3242    9.1770 C   0  0  0  0  0  0  0  0  0  0  0  0
   -7.6315   -5.3220    8.1185 C   0  0  0  0  0  0  0  0  0  0  0  0
   -8.6126   -6.0787    7.4607 C   0  0  0  0  0  0  0  0  0  0  0  0
   -8.8766   -7.8497    7.9716 N   0  0  0  0  0  0  0  0  0  0  0  0
   -9.3910  -12.7188    8.5026 C   0  0  0  0  0  0  0  0  0  0  0  0
  -10.2566  -16.4592   13.0374 C   0  0  0  0  0  0  0  0  0  0  0  0
  -11.3496  -17.2296   13.5900 C   0  0  0  0  0  0  0  0  0  0  0  0
  -11.1136  -18.5075   14.1256 C   0  0  0  0  0  0  0  0  0  0  0  0
  -10.4446  -19.6399   13.4403 N   0  0  0  0  0  0  0  0  0  0  0  0
  -10.4112  -21.0862   13.4553 N   0  0  0  0  0  0  0  0  0  0  0  0
   -9.4739  -21.4504   12.5310 C   0  0  0  0  0  0  0  0  0  0  0  0
   -8.7661  -20.2523   11.8820 C   0  0  0  0  0  0  0  0  0  0  0  0
   -9.4134  -19.0764   12.4525 C   0  0  0  0  0  0  0  0  0  0  0  0
   -9.2122  -17.4243   12.8724 C   0  0  0  0  0  0  0  0  0  0  0  0
   -9.2339  -12.5822   10.7790 H   0  0  0  0  0  0  0  0  0  0  0  0
  -10.5102  -10.2649   10.3695 H   0  0  0  0  0  0  0  0  0  0  0  0
  -11.6871  -11.3613    9.7696 H   0  0  0  0  0  0  0  0  0  0  0  0
   -9.7608  -10.5988    7.1271 H   0  0  0  0  0  0  0  0  0  0  0  0
  -10.2405   -9.3985    8.3391 H   0  0  0  0  0  0  0  0  0  0  0  0
   -6.2010   -8.4697    9.6862 H   0  0  0  0  0  0  0  0  0  0  0  0
   -6.0987   -6.1000    9.8268 H   0  0  0  0  0  0  0  0  0  0  0  0
   -7.4608   -4.2857    7.9278 H   0  0  0  0  0  0  0  0  0  0  0  0
   -9.3146   -5.7710    6.6923 H   0  0  0  0  0  0  0  0  0  0  0  0
   -9.6435  -13.2754    7.5897 H   0  0  0  0  0  0  0  0  0  0  0  0
   -8.8831  -13.4933    9.1116 H   0  0  0  0  0  0  0  0  0  0  0  0
  -12.1328  -16.5850   14.0056 H   0  0  0  0  0  0  0  0  0  0  0  0
  -10.7893  -18.5568   15.1620 H   0  0  0  0  0  0  0  0  0  0  0  0
   -9.2495  -22.4996   12.4495 H   0  0  0  0  0  0  0  0  0  0  0  0
   -7.8728  -20.2908   11.2812 H   0  0  0  0  0  0  0  0  0  0  0  0
   -8.1761  -17.2701   12.8881 H   0  0  0  0  0  0  0  0  0  0  0  0
  1  2  2  0
  2  3  1  0
  3  4  1  0
  4  5  1  0
  5  6  1  0
  6  7  1  0
  7  8  1  0
  8  9  2  0
  9 10  1  0
 10 11  2  0
 11 12  1  0
 12 13  2  0
  7 14  1  0
  2 15  1  0
 15 16  1  0
 16 17  2  0
 17 18  1  0
 18 19  1  0
 19 20  2  0
 20 21  1  0
 21 22  2  0
 22 23  1  0
 14  4  1  0
 23 15  2  0
 13  8  1  0
 22 18  1  0
  4 24  1  0
  5 25  1  0
  5 26  1  0
  6 27  1  0
  6 28  1  0
  9 29  1  0
 10 30  1  0
 11 31  1  0
 12 32  1  0
 14 33  1  0
 14 34  1  0
 16 35  1  0
 17 36  1  0
 20 37  1  0
 21 38  1  0
 23 39  1  0
M  END
>  <Energy>  (15) 
1054.1439765102821

>  <compound_id>  (15) 
58016

>  <target_id>  (15) 
1

>  <reference_id>  (15) 
30

>  <inspiration_ids>  (15) 
[30, 69]

>  <energy_score>  (15) 
972.3926347962199

>  <distance_score>  (15) 
7.790194067680022

>  <path>  (15) 
/opt/xchem-fragalysis-2/maxwin/BulkDock/SCRATCH/511021/C58016-P30/C58016-P30.minimised.mol

>  <scratch_subdir>  (15) 
/opt/xchem-fragalysis-2/maxwin/BulkDock/SCRATCH/511021/C58016-P30

>  <fragmenstein_runtime>  (15) 
15.521626472473145

>  <fragmenstein_outcome>  (15) 
too moved

>  <fragmenstein_mode>  (15) 
expansion

>  <fragmenstein_error>  (15) 


$$$$
C58016-P69
     RDKit          3D

 39 42  0  0  0  0  0  0  0  0999 V2000
  -11.7147  -14.9441   13.8334 O   0  0  0  0  0  0  0  0  0  0  0  0
  -10.7654  -15.2914   13.1403 C   0  0  0  0  0  0  0  0  0  0  0  0
  -10.2660  -14.0843   12.1844 O   0  0  0  0  0  0  0  0  0  0  0  0
  -10.2706  -12.3591   11.4944 C   0  0  0  0  0  0  0  0  0  0  0  0
   -9.5002  -11.3238   12.3487 C   0  0  0  0  0  0  0  0  0  0  0  0
   -9.6277   -9.6457   11.5575 C   0  0  0  0  0  0  0  0  0  0  0  0
  -10.0649   -9.4845    9.7443 N   0  0  0  0  0  0  0  0  0  0  0  0
   -8.9259   -8.5062    8.4765 C   0  0  0  0  0  0  0  0  0  0  0  0
   -7.3794   -7.9735    9.0078 C   0  0  0  0  0  0  0  0  0  0  0  0
   -7.0746   -6.1367    9.0858 C   0  0  0  0  0  0  0  0  0  0  0  0
   -7.7135   -5.1160    8.1704 C   0  0  0  0  0  0  0  0  0  0  0  0
   -8.7265   -5.6083    7.3621 C   0  0  0  0  0  0  0  0  0  0  0  0
   -9.3478   -6.9967    7.5676 N   0  0  0  0  0  0  0  0  0  0  0  0
  -10.5085  -11.3496    9.8446 C   0  0  0  0  0  0  0  0  0  0  0  0
  -10.2392  -17.1416   13.3393 C   0  0  0  0  0  0  0  0  0  0  0  0
  -10.9706  -18.2687   14.0110 C   0  0  0  0  0  0  0  0  0  0  0  0
  -10.9690  -19.6370   13.7652 C   0  0  0  0  0  0  0  0  0  0  0  0
  -10.2200  -20.4374   13.0165 N   0  0  0  0  0  0  0  0  0  0  0  0
  -10.1254  -21.7747   12.8085 N   0  0  0  0  0  0  0  0  0  0  0  0
   -9.2622  -21.8319   11.7952 C   0  0  0  0  0  0  0  0  0  0  0  0
   -8.9210  -20.5293   11.3494 C   0  0  0  0  0  0  0  0  0  0  0  0
   -9.4792  -19.6430   12.2387 C   0  0  0  0  0  0  0  0  0  0  0  0
   -9.6866  -18.1007   12.5715 C   0  0  0  0  0  0  0  0  0  0  0  0
   -9.4367  -12.7174   10.9269 H   0  0  0  0  0  0  0  0  0  0  0  0
   -8.5677  -11.8493   12.3023 H   0  0  0  0  0  0  0  0  0  0  0  0
   -9.4334  -11.2357   13.4307 H   0  0  0  0  0  0  0  0  0  0  0  0
   -8.7324   -9.1382   11.6825 H   0  0  0  0  0  0  0  0  0  0  0  0
  -10.3898   -9.3692   12.2152 H   0  0  0  0  0  0  0  0  0  0  0  0
   -6.8579   -8.3813    9.8602 H   0  0  0  0  0  0  0  0  0  0  0  0
   -6.2894   -5.8829    9.7527 H   0  0  0  0  0  0  0  0  0  0  0  0
   -7.4290   -4.0869    8.0555 H   0  0  0  0  0  0  0  0  0  0  0  0
   -9.2340   -5.0239    6.6007 H   0  0  0  0  0  0  0  0  0  0  0  0
  -10.1554  -12.0399    9.1097 H   0  0  0  0  0  0  0  0  0  0  0  0
  -11.5409  -11.1048    9.7542 H   0  0  0  0  0  0  0  0  0  0  0  0
  -11.7893  -17.9217   14.5645 H   0  0  0  0  0  0  0  0  0  0  0  0
  -11.8970  -20.1482   13.7230 H   0  0  0  0  0  0  0  0  0  0  0  0
   -8.9937  -22.7941   11.3883 H   0  0  0  0  0  0  0  0  0  0  0  0
   -8.4001  -20.2449   10.4691 H   0  0  0  0  0  0  0  0  0  0  0  0
   -9.9019  -17.8401   11.6234 H   0  0  0  0  0  0  0  0  0  0  0  0
  1  2  2  0
  2  3  1  0
  3  4  1  0
  4  5  1  0
  5  6  1  0
  6  7  1  0
  7  8  1  0
  8  9  2  0
  9 10  1  0
 10 11  2  0
 11 12  1  0
 12 13  2  0
  7 14  1  0
  2 15  1  0
 15 16  1  0
 16 17  2  0
 17 18  1  0
 18 19  1  0
 19 20  2  0
 20 21  1  0
 21 22  2  0
 22 23  1  0
 14  4  1  0
 23 15  2  0
 13  8  1  0
 22 18  1  0
  4 24  1  0
  5 25  1  0
  5 26  1  0
  6 27  1  0
  6 28  1  0
  9 29  1  0
 10 30  1  0
 11 31  1  0
 12 32  1  0
 14 33  1  0
 14 34  1  0
 16 35  1  0
 17 36  1  0
 20 37  1  0
 21 38  1  0
 23 39  1  0
M  END
>  <Energy>  (16) 
946.79772088760899

>  <compound_id>  (16) 
58016

>  <target_id>  (16) 
1

>  <reference_id>  (16) 
69

>  <inspiration_ids>  (16) 
[30, 69]

>  <energy_score>  (16) 
865.0463791735501

>  <distance_score>  (16) 
7.4875009095558465

>  <path>  (16) 
/opt/xchem-fragalysis-2/maxwin/BulkDock/SCRATCH/511021/C58016-P69/C58016-P69.minimised.mol

>  <scratch_subdir>  (16) 
/opt/xchem-fragalysis-2/maxwin/BulkDock/SCRATCH/511021/C58016-P69

>  <fragmenstein_runtime>  (16) 
15.797553539276123

>  <fragmenstein_outcome>  (16) 
too moved

>  <fragmenstein_mode>  (16) 
expansion

>  <fragmenstein_error>  (16) 


$$$$
C58034-P30
     RDKit          3D

 40 42  0  0  0  0  0  0  0  0999 V2000
  -10.3865  -16.2993   13.0763 C   0  0  0  0  0  0  0  0  0  0  0  0
  -10.7090  -14.6359   13.3141 S   0  0  0  0  0  0  0  0  0  0  0  0
  -12.0739  -14.6851   13.8024 O   0  0  0  0  0  0  0  0  0  0  0  0
   -9.6004  -14.1753   14.1332 O   0  0  0  0  0  0  0  0  0  0  0  0
  -10.6409  -13.4642   11.9492 C   0  0  0  0  0  0  0  0  0  0  0  0
  -11.6519  -12.5852   11.0065 C   0  0  0  0  0  0  0  0  0  0  0  0
  -12.7571  -13.7365   10.9518 C   0  0  0  0  0  0  0  0  0  0  0  0
  -13.3724  -11.9209   10.5592 C   0  0  0  0  0  0  0  0  0  0  0  0
  -14.5263  -10.8340    9.7853 N   0  0  0  0  0  0  0  0  0  0  0  0
  -15.6181  -10.6179   10.6382 C   0  0  0  0  0  0  0  0  0  0  0  0
  -16.6428  -11.2811   10.6701 O   0  0  0  0  0  0  0  0  0  0  0  0
  -15.5674   -9.3623   11.5357 C   0  0  0  0  0  0  0  0  0  0  0  0
  -16.4859   -9.2693   12.5775 C   0  0  0  0  0  0  0  0  0  0  0  0
  -16.3665   -8.2854   13.5664 C   0  0  0  0  0  0  0  0  0  0  0  0
  -15.3388   -7.3692   13.5654 C   0  0  0  0  0  0  0  0  0  0  0  0
  -15.1801   -6.5624   14.6325 N   0  0  0  0  0  0  0  0  0  0  0  0
  -14.1112   -5.7491   14.6865 C   0  0  0  0  0  0  0  0  0  0  0  0
  -13.2128   -5.6519   13.6664 C   0  0  0  0  0  0  0  0  0  0  0  0
  -13.4685   -6.4129   12.5281 C   0  0  0  0  0  0  0  0  0  0  0  0
  -14.4930   -7.3564   12.4577 C   0  0  0  0  0  0  0  0  0  0  0  0
  -14.6510   -8.3078   11.4040 C   0  0  0  0  0  0  0  0  0  0  0  0
  -13.3398  -11.6078    9.8895 C   0  0  0  0  0  0  0  0  0  0  0  0
  -10.9809  -16.3537   12.1967 H   0  0  0  0  0  0  0  0  0  0  0  0
   -9.3796  -16.6723   13.0802 H   0  0  0  0  0  0  0  0  0  0  0  0
  -10.8549  -17.0508   13.6657 H   0  0  0  0  0  0  0  0  0  0  0  0
   -9.7994  -12.7968   12.1841 H   0  0  0  0  0  0  0  0  0  0  0  0
  -10.3146  -14.1318   11.2336 H   0  0  0  0  0  0  0  0  0  0  0  0
  -10.7587  -12.5082   10.2635 H   0  0  0  0  0  0  0  0  0  0  0  0
  -13.6606  -14.1892   11.1547 H   0  0  0  0  0  0  0  0  0  0  0  0
  -12.6238  -14.2220   11.9374 H   0  0  0  0  0  0  0  0  0  0  0  0
  -14.0860  -12.4017   11.2669 H   0  0  0  0  0  0  0  0  0  0  0  0
  -11.9403  -11.3581    9.9326 H   0  0  0  0  0  0  0  0  0  0  0  0
  -17.2717  -10.0198   12.6751 H   0  0  0  0  0  0  0  0  0  0  0  0
  -17.0658   -8.2952   14.4002 H   0  0  0  0  0  0  0  0  0  0  0  0
  -14.0092   -5.1699   15.5988 H   0  0  0  0  0  0  0  0  0  0  0  0
  -12.3560   -4.9961   13.7543 H   0  0  0  0  0  0  0  0  0  0  0  0
  -12.8235   -6.2720   11.6815 H   0  0  0  0  0  0  0  0  0  0  0  0
  -13.9992   -8.2890   10.5382 H   0  0  0  0  0  0  0  0  0  0  0  0
  -14.0681  -12.0375    9.0479 H   0  0  0  0  0  0  0  0  0  0  0  0
  -12.9622  -10.5624    9.2803 H   0  0  0  0  0  0  0  0  0  0  0  0
  1  2  1  0
  2  3  2  0
  2  4  2  0
  2  5  1  0
  5  6  1  0
  6  7  1  0
  7  8  1  0
  8  9  1  0
  9 10  1  0
 10 11  2  0
 10 12  1  0
 12 13  2  0
 13 14  1  0
 14 15  2  0
 15 16  1  0
 16 17  2  0
 17 18  1  0
 18 19  2  0
 19 20  1  0
 20 21  2  0
  9 22  1  0
 22  6  1  0
 21 12  1  0
 20 15  1  0
  1 23  1  0
  1 24  1  0
  1 25  1  0
  5 26  1  0
  5 27  1  0
  6 28  1  0
  7 29  1  0
  7 30  1  0
  8 31  1  0
  8 32  1  0
 13 33  1  0
 14 34  1  0
 17 35  1  0
 18 36  1  0
 19 37  1  0
 21 38  1  0
 22 39  1  0
 22 40  1  0
M  END
>  <Energy>  (17) 
1314.943389897596

>  <compound_id>  (17) 
58034

>  <target_id>  (17) 
1

>  <reference_id>  (17) 
30

>  <inspiration_ids>  (17) 
[30, 69]

>  <energy_score>  (17) 
1252.4968914147244

>  <distance_score>  (17) 
12.250141174380124

>  <path>  (17) 
/opt/xchem-fragalysis-2/maxwin/BulkDock/SCRATCH/511021/C58034-P30/C58034-P30.minimised.mol

>  <scratch_subdir>  (17) 
/opt/xchem-fragalysis-2/maxwin/BulkDock/SCRATCH/511021/C58034-P30

>  <fragmenstein_runtime>  (17) 
28.84520173072815

>  <fragmenstein_outcome>  (17) 
too moved

>  <fragmenstein_mode>  (17) 
expansion

>  <fragmenstein_error>  (17) 


$$$$
C58034-P69
     RDKit          3D

 40 42  0  0  0  0  0  0  0  0999 V2000
  -13.0692  -18.1275   16.5332 C   0  0  0  0  0  0  0  0  0  0  0  0
  -13.8678  -16.9683   15.6089 S   0  0  0  0  0  0  0  0  0  0  0  0
  -14.7168  -17.7164   14.7022 O   0  0  0  0  0  0  0  0  0  0  0  0
  -14.8028  -16.5302   16.7032 O   0  0  0  0  0  0  0  0  0  0  0  0
  -12.4278  -15.2525   14.5884 C   0  0  0  0  0  0  0  0  0  0  0  0
  -11.3449  -14.1126   13.2011 C   0  0  0  0  0  0  0  0  0  0  0  0
   -9.9250  -14.1184   12.9790 C   0  0  0  0  0  0  0  0  0  0  0  0
   -9.3571  -12.4936   11.9781 C   0  0  0  0  0  0  0  0  0  0  0  0
   -9.5821  -10.6979   12.6197 N   0  0  0  0  0  0  0  0  0  0  0  0
   -8.9270   -9.4941   11.2834 C   0  0  0  0  0  0  0  0  0  0  0  0
   -9.8657   -9.1957   10.5611 O   0  0  0  0  0  0  0  0  0  0  0  0
   -7.2155   -8.5765   10.5426 C   0  0  0  0  0  0  0  0  0  0  0  0
   -5.9658   -7.9413   11.0968 C   0  0  0  0  0  0  0  0  0  0  0  0
   -5.5475   -6.5125   10.5135 C   0  0  0  0  0  0  0  0  0  0  0  0
   -6.3396   -5.4459    9.2450 C   0  0  0  0  0  0  0  0  0  0  0  0
   -6.2014   -4.2630    7.9888 N   0  0  0  0  0  0  0  0  0  0  0  0
   -6.9826   -3.6145    7.1062 C   0  0  0  0  0  0  0  0  0  0  0  0
   -8.2049   -4.0716    7.0095 C   0  0  0  0  0  0  0  0  0  0  0  0
   -8.2769   -5.2478    7.7164 C   0  0  0  0  0  0  0  0  0  0  0  0
   -7.3062   -6.0227    8.8150 C   0  0  0  0  0  0  0  0  0  0  0  0
   -7.1848   -7.8423    9.1818 C   0  0  0  0  0  0  0  0  0  0  0  0
   -9.8135  -12.6239   12.7982 C   0  0  0  0  0  0  0  0  0  0  0  0
  -13.2255  -18.1464   17.6173 H   0  0  0  0  0  0  0  0  0  0  0  0
  -12.0501  -17.9171   16.2859 H   0  0  0  0  0  0  0  0  0  0  0  0
  -13.5393  -19.0074   16.1789 H   0  0  0  0  0  0  0  0  0  0  0  0
  -12.6968  -14.4099   15.2143 H   0  0  0  0  0  0  0  0  0  0  0  0
  -11.7247  -15.9444   14.2256 H   0  0  0  0  0  0  0  0  0  0  0  0
  -11.9927  -14.1364   12.3652 H   0  0  0  0  0  0  0  0  0  0  0  0
   -9.9928  -14.9458   12.3560 H   0  0  0  0  0  0  0  0  0  0  0  0
   -9.5159  -14.2170   14.0225 H   0  0  0  0  0  0  0  0  0  0  0  0
   -9.8066  -12.5227   10.8886 H   0  0  0  0  0  0  0  0  0  0  0  0
   -8.2395  -12.5736   11.7580 H   0  0  0  0  0  0  0  0  0  0  0  0
   -5.5086   -8.1959   12.0510 H   0  0  0  0  0  0  0  0  0  0  0  0
   -4.5527   -6.1971   10.8748 H   0  0  0  0  0  0  0  0  0  0  0  0
   -6.5554   -2.7961    6.5504 H   0  0  0  0  0  0  0  0  0  0  0  0
   -8.9541   -3.7168    6.3235 H   0  0  0  0  0  0  0  0  0  0  0  0
   -9.1138   -5.8464    7.3523 H   0  0  0  0  0  0  0  0  0  0  0  0
   -7.7862   -8.3844    8.4342 H   0  0  0  0  0  0  0  0  0  0  0  0
   -9.5279  -12.3865   13.9440 H   0  0  0  0  0  0  0  0  0  0  0  0
  -10.8939  -12.2789   12.2357 H   0  0  0  0  0  0  0  0  0  0  0  0
  1  2  1  0
  2  3  2  0
  2  4  2  0
  2  5  1  0
  5  6  1  0
  6  7  1  0
  7  8  1  0
  8  9  1  0
  9 10  1  0
 10 11  2  0
 10 12  1  0
 12 13  2  0
 13 14  1  0
 14 15  2  0
 15 16  1  0
 16 17  2  0
 17 18  1  0
 18 19  2  0
 19 20  1  0
 20 21  2  0
  9 22  1  0
 22  6  1  0
 21 12  1  0
 20 15  1  0
  1 23  1  0
  1 24  1  0
  1 25  1  0
  5 26  1  0
  5 27  1  0
  6 28  1  0
  7 29  1  0
  7 30  1  0
  8 31  1  0
  8 32  1  0
 13 33  1  0
 14 34  1  0
 17 35  1  0
 18 36  1  0
 19 37  1  0
 21 38  1  0
 22 39  1  0
 22 40  1  0
M  END
>  <Energy>  (18) 
1760.5886160714051

>  <compound_id>  (18) 
58034

>  <target_id>  (18) 
1

>  <reference_id>  (18) 
69

>  <inspiration_ids>  (18) 
[30, 69]

>  <energy_score>  (18) 
1698.1421175885307

>  <distance_score>  (18) 
8.723634088851911

>  <path>  (18) 
/opt/xchem-fragalysis-2/maxwin/BulkDock/SCRATCH/511021/C58034-P69/C58034-P69.minimised.mol

>  <scratch_subdir>  (18) 
/opt/xchem-fragalysis-2/maxwin/BulkDock/SCRATCH/511021/C58034-P69

>  <fragmenstein_runtime>  (18) 
29.05040979385376

>  <fragmenstein_outcome>  (18) 
too moved

>  <fragmenstein_mode>  (18) 
expansion

>  <fragmenstein_error>  (18) 


$$$$
C58036-P30
     RDKit          3D

 40 42  0  0  0  0  0  0  0  0999 V2000
   -9.2776  -12.5381   10.8611 O   0  0  0  0  0  0  0  0  0  0  0  0
  -10.1706  -12.6979    9.6570 S   0  0  0  0  0  0  0  0  0  0  0  0
   -9.5765  -13.5994    8.7093 O   0  0  0  0  0  0  0  0  0  0  0  0
  -10.7788  -13.8868   11.4760 N   0  0  0  0  0  0  0  0  0  0  0  0
  -11.1376  -15.8620   12.0541 C   0  0  0  0  0  0  0  0  0  0  0  0
  -12.0757  -17.4347   10.8868 C   0  0  0  0  0  0  0  0  0  0  0  0
  -12.8594  -19.5128   11.1073 C   0  0  0  0  0  0  0  0  0  0  0  0
  -12.7153  -20.7672   13.0670 C   0  0  0  0  0  0  0  0  0  0  0  0
  -11.7466  -22.4221   12.9573 C   0  0  0  0  0  0  0  0  0  0  0  0
  -10.6332  -21.5263   13.0865 C   0  0  0  0  0  0  0  0  0  0  0  0
  -11.8836  -20.2755   13.0447 N   0  0  0  0  0  0  0  0  0  0  0  0
   -9.5676  -10.7806    8.1402 C   0  0  0  0  0  0  0  0  0  0  0  0
   -9.5637  -10.8047    6.5545 C   0  0  0  0  0  0  0  0  0  0  0  0
  -10.0135   -9.5658    5.1961 C   0  0  0  0  0  0  0  0  0  0  0  0
  -10.5149   -8.2204    5.3783 C   0  0  0  0  0  0  0  0  0  0  0  0
  -10.8618   -7.4154    4.2653 N   0  0  0  0  0  0  0  0  0  0  0  0
  -10.5806   -6.0589    4.2762 C   0  0  0  0  0  0  0  0  0  0  0  0
  -10.0015   -5.3940    5.3799 C   0  0  0  0  0  0  0  0  0  0  0  0
   -9.7368   -6.2763    6.5025 C   0  0  0  0  0  0  0  0  0  0  0  0
  -10.1983   -7.8541    6.7753 C   0  0  0  0  0  0  0  0  0  0  0  0
   -9.9757   -9.1474    8.0605 C   0  0  0  0  0  0  0  0  0  0  0  0
  -11.7669  -13.8583   11.2142 H   0  0  0  0  0  0  0  0  0  0  0  0
  -10.4026  -16.1528   12.8331 H   0  0  0  0  0  0  0  0  0  0  0  0
  -11.8740  -15.2639   12.6916 H   0  0  0  0  0  0  0  0  0  0  0  0
  -12.5533  -17.0936    9.9508 H   0  0  0  0  0  0  0  0  0  0  0  0
  -11.1862  -17.8086   10.3742 H   0  0  0  0  0  0  0  0  0  0  0  0
  -12.5819  -20.0127   12.7407 H   0  0  0  0  0  0  0  0  0  0  0  0
  -13.7016  -21.6170   13.2755 H   0  0  0  0  0  0  0  0  0  0  0  0
  -13.4757  -20.2906   14.0808 H   0  0  0  0  0  0  0  0  0  0  0  0
  -11.8136  -23.0480   12.0685 H   0  0  0  0  0  0  0  0  0  0  0  0
  -11.8694  -23.1487   13.7633 H   0  0  0  0  0  0  0  0  0  0  0  0
  -10.2023  -21.5549   14.0872 H   0  0  0  0  0  0  0  0  0  0  0  0
   -9.8478  -21.5174   12.3317 H   0  0  0  0  0  0  0  0  0  0  0  0
  -11.2940  -19.5180   13.5695 H   0  0  0  0  0  0  0  0  0  0  0  0
   -9.7169  -11.7931    6.1273 H   0  0  0  0  0  0  0  0  0  0  0  0
  -10.1385   -9.9639    4.1731 H   0  0  0  0  0  0  0  0  0  0  0  0
  -10.7346   -5.5487    3.3309 H   0  0  0  0  0  0  0  0  0  0  0  0
   -9.6948   -4.3576    5.3607 H   0  0  0  0  0  0  0  0  0  0  0  0
   -9.0941   -5.7925    7.2505 H   0  0  0  0  0  0  0  0  0  0  0  0
  -10.6994   -9.0806    8.8816 H   0  0  0  0  0  0  0  0  0  0  0  0
  1  2  2  0
  2  3  2  0
  2  4  1  0
  4  5  1  0
  5  6  1  0
  6  7  1  0
  7  8  1  0
  8  9  1  0
  9 10  1  0
 10 11  1  0
  2 12  1  0
 12 13  2  0
 13 14  1  0
 14 15  2  0
 15 16  1  0
 16 17  2  0
 17 18  1  0
 18 19  2  0
 19 20  1  0
 20 21  2  0
 11  7  1  0
 21 12  1  0
 20 15  1  0
  4 22  1  0
  5 23  1  0
  5 24  1  0
  6 25  1  0
  6 26  1  0
  7 27  1  0
  8 28  1  0
  8 29  1  0
  9 30  1  0
  9 31  1  0
 10 32  1  0
 10 33  1  0
 11 34  1  0
 13 35  1  0
 14 36  1  0
 17 37  1  0
 18 38  1  0
 19 39  1  0
 21 40  1  0
M  END
>  <Energy>  (19) 
2179.7437641638548

>  <compound_id>  (19) 
58036

>  <target_id>  (19) 
1

>  <reference_id>  (19) 
30

>  <inspiration_ids>  (19) 
[30, 69]

>  <energy_score>  (19) 
2160.8577877220723

>  <distance_score>  (19) 
8.871676467776371

>  <path>  (19) 
/opt/xchem-fragalysis-2/maxwin/BulkDock/SCRATCH/511021/C58036-P30/C58036-P30.minimised.mol

>  <scratch_subdir>  (19) 
/opt/xchem-fragalysis-2/maxwin/BulkDock/SCRATCH/511021/C58036-P30

>  <fragmenstein_runtime>  (19) 
19.8072190284729

>  <fragmenstein_outcome>  (19) 
too moved

>  <fragmenstein_mode>  (19) 
expansion

>  <fragmenstein_error>  (19) 


$$$$
C58036-P69
     RDKit          3D

 40 42  0  0  0  0  0  0  0  0999 V2000
   -9.6685   -9.9106    7.8712 O   0  0  0  0  0  0  0  0  0  0  0  0
  -10.4860   -9.2753    8.8633 S   0  0  0  0  0  0  0  0  0  0  0  0
  -11.9600   -9.0276    8.9734 O   0  0  0  0  0  0  0  0  0  0  0  0
  -10.6176  -11.3660    9.7781 N   0  0  0  0  0  0  0  0  0  0  0  0
  -10.2379  -12.2992   11.4875 C   0  0  0  0  0  0  0  0  0  0  0  0
  -10.8730  -13.9371   12.3973 C   0  0  0  0  0  0  0  0  0  0  0  0
  -11.3223  -15.3418   13.7296 C   0  0  0  0  0  0  0  0  0  0  0  0
  -12.5132  -15.8785   15.2313 C   0  0  0  0  0  0  0  0  0  0  0  0
  -12.4057  -17.5142   15.6416 C   0  0  0  0  0  0  0  0  0  0  0  0
  -11.1309  -18.0729   14.2635 C   0  0  0  0  0  0  0  0  0  0  0  0
  -10.6203  -16.8774   13.3952 N   0  0  0  0  0  0  0  0  0  0  0  0
  -10.4736   -7.9000    6.9602 C   0  0  0  0  0  0  0  0  0  0  0  0
  -11.1004   -7.9577    5.6355 C   0  0  0  0  0  0  0  0  0  0  0  0
  -11.0113   -6.9597    4.5067 C   0  0  0  0  0  0  0  0  0  0  0  0
  -10.4242   -5.6804    4.5925 C   0  0  0  0  0  0  0  0  0  0  0  0
  -10.4158   -4.7761    3.5827 N   0  0  0  0  0  0  0  0  0  0  0  0
   -9.8156   -3.5817    3.8015 C   0  0  0  0  0  0  0  0  0  0  0  0
   -9.1822   -3.2368    4.9785 C   0  0  0  0  0  0  0  0  0  0  0  0
   -9.1737   -4.1780    5.9978 C   0  0  0  0  0  0  0  0  0  0  0  0
   -9.7943   -5.4362    5.8224 C   0  0  0  0  0  0  0  0  0  0  0  0
   -9.8164   -6.5097    6.8744 C   0  0  0  0  0  0  0  0  0  0  0  0
  -10.2222  -12.0319    9.1198 H   0  0  0  0  0  0  0  0  0  0  0  0
   -9.2099  -12.5798   11.2796 H   0  0  0  0  0  0  0  0  0  0  0  0
  -10.0596  -11.5184   12.2310 H   0  0  0  0  0  0  0  0  0  0  0  0
  -10.3718  -14.6070   11.7785 H   0  0  0  0  0  0  0  0  0  0  0  0
   -9.9983  -13.7086   13.0475 H   0  0  0  0  0  0  0  0  0  0  0  0
  -10.4230  -15.0164   14.2298 H   0  0  0  0  0  0  0  0  0  0  0  0
  -12.6662  -15.1062   16.0007 H   0  0  0  0  0  0  0  0  0  0  0  0
  -13.6032  -16.0999   15.3532 H   0  0  0  0  0  0  0  0  0  0  0  0
  -12.0450  -17.5430   16.6716 H   0  0  0  0  0  0  0  0  0  0  0  0
  -13.3913  -18.0187   15.6485 H   0  0  0  0  0  0  0  0  0  0  0  0
  -10.2803  -18.4244   14.8625 H   0  0  0  0  0  0  0  0  0  0  0  0
  -11.2978  -18.9803   13.7069 H   0  0  0  0  0  0  0  0  0  0  0  0
   -9.6086  -16.8053   13.4686 H   0  0  0  0  0  0  0  0  0  0  0  0
  -11.8094   -8.6558    5.2415 H   0  0  0  0  0  0  0  0  0  0  0  0
  -11.5348   -7.2047    3.5809 H   0  0  0  0  0  0  0  0  0  0  0  0
   -9.8733   -2.8847    2.9702 H   0  0  0  0  0  0  0  0  0  0  0  0
   -8.7223   -2.2643    5.1029 H   0  0  0  0  0  0  0  0  0  0  0  0
   -8.6911   -3.9313    6.9405 H   0  0  0  0  0  0  0  0  0  0  0  0
   -9.2201   -6.0693    7.6446 H   0  0  0  0  0  0  0  0  0  0  0  0
  1  2  2  0
  2  3  2  0
  2  4  1  0
  4  5  1  0
  5  6  1  0
  6  7  1  0
  7  8  1  0
  8  9  1  0
  9 10  1  0
 10 11  1  0
  2 12  1  0
 12 13  2  0
 13 14  1  0
 14 15  2  0
 15 16  1  0
 16 17  2  0
 17 18  1  0
 18 19  2  0
 19 20  1  0
 20 21  2  0
 11  7  1  0
 21 12  1  0
 20 15  1  0
  4 22  1  0
  5 23  1  0
  5 24  1  0
  6 25  1  0
  6 26  1  0
  7 27  1  0
  8 28  1  0
  8 29  1  0
  9 30  1  0
  9 31  1  0
 10 32  1  0
 10 33  1  0
 11 34  1  0
 13 35  1  0
 14 36  1  0
 17 37  1  0
 18 38  1  0
 19 39  1  0
 21 40  1  0
M  END
>  <Energy>  (20) 
772.89972559820944

>  <compound_id>  (20) 
58036

>  <target_id>  (20) 
1

>  <reference_id>  (20) 
69

>  <inspiration_ids>  (20) 
[30, 69]

>  <energy_score>  (20) 
754.0137491564187

>  <distance_score>  (20) 
8.43618656596332

>  <path>  (20) 
/opt/xchem-fragalysis-2/maxwin/BulkDock/SCRATCH/511021/C58036-P69/C58036-P69.minimised.mol

>  <scratch_subdir>  (20) 
/opt/xchem-fragalysis-2/maxwin/BulkDock/SCRATCH/511021/C58036-P69

>  <fragmenstein_runtime>  (20) 
15.233961343765259

>  <fragmenstein_outcome>  (20) 
too moved

>  <fragmenstein_mode>  (20) 
expansion

>  <fragmenstein_error>  (20) 


$$$$
C51677-P3
     RDKit          3D

 50 54  0  0  0  0  0  0  0  0999 V2000
  -13.2757  -23.4732   25.9504 O   0  0  0  0  0  0  0  0  0  0  0  0
  -13.5271  -24.2517   26.8275 C   0  0  0  0  0  0  0  0  0  0  0  0
  -12.5821  -24.3423   27.9804 C   0  0  0  0  0  0  0  0  0  0  0  0
  -12.3382  -25.5596   28.6207 C   0  0  0  0  0  0  0  0  0  0  0  0
  -11.5269  -25.6311   29.7540 C   0  0  0  0  0  0  0  0  0  0  0  0
  -10.9602  -24.4411   30.2142 C   0  0  0  0  0  0  0  0  0  0  0  0
  -10.0510  -24.2110   31.2158 N   0  0  0  0  0  0  0  0  0  0  0  0
   -9.8173  -22.8719   31.3334 C   0  0  0  0  0  0  0  0  0  0  0  0
  -10.6847  -22.2090   30.4922 C   0  0  0  0  0  0  0  0  0  0  0  0
  -11.2285  -23.2049   29.6283 C   0  0  0  0  0  0  0  0  0  0  0  0
  -12.0136  -23.1589   28.4633 C   0  0  0  0  0  0  0  0  0  0  0  0
  -11.0628  -20.7640   30.4976 C   0  0  0  0  0  0  0  0  0  0  0  0
  -10.8799  -19.9809   31.8039 C   0  0  0  0  0  0  0  0  0  0  0  0
  -10.6963  -20.7826   33.0853 C   0  0  0  0  0  0  0  0  0  0  0  0
   -9.3241  -21.3999   33.3125 C   0  0  0  0  0  0  0  0  0  0  0  0
   -8.8028  -22.3685   32.2750 C   0  0  0  0  0  0  0  0  0  0  0  0
  -14.6360  -25.1185   27.0010 N   0  0  0  0  0  0  0  0  0  0  0  0
  -15.7868  -25.4214   26.1007 C   0  0  0  0  0  0  0  0  0  0  0  0
  -16.9023  -26.1339   26.8244 C   0  0  0  0  0  0  0  0  0  0  0  0
  -16.8863  -25.3584   28.1033 C   0  0  0  0  0  0  0  0  0  0  0  0
  -16.6456  -26.1936   29.3194 C   0  0  0  0  0  0  0  0  0  0  0  0
  -17.3321  -26.2915   30.5110 C   0  0  0  0  0  0  0  0  0  0  0  0
  -16.5900  -27.2039   31.2837 C   0  0  0  0  0  0  0  0  0  0  0  0
  -15.5142  -27.6574   30.6374 N   0  0  0  0  0  0  0  0  0  0  0  0
  -15.5760  -27.0413   29.4489 N   0  0  0  0  0  0  0  0  0  0  0  0
  -15.7285  -24.4224   27.7936 C   0  0  0  0  0  0  0  0  0  0  0  0
  -12.7668  -26.4772   28.2289 H   0  0  0  0  0  0  0  0  0  0  0  0
  -11.3387  -26.5828   30.2378 H   0  0  0  0  0  0  0  0  0  0  0  0
   -9.5871  -24.9142   31.7759 H   0  0  0  0  0  0  0  0  0  0  0  0
  -12.2096  -22.2105   27.9694 H   0  0  0  0  0  0  0  0  0  0  0  0
  -12.1299  -20.7418   30.2938 H   0  0  0  0  0  0  0  0  0  0  0  0
  -10.6342  -20.2338   29.6417 H   0  0  0  0  0  0  0  0  0  0  0  0
  -11.7733  -19.3538   31.9295 H   0  0  0  0  0  0  0  0  0  0  0  0
  -10.0679  -19.2589   31.7069 H   0  0  0  0  0  0  0  0  0  0  0  0
  -10.9344  -20.1335   33.9347 H   0  0  0  0  0  0  0  0  0  0  0  0
  -11.4181  -21.5807   33.1184 H   0  0  0  0  0  0  0  0  0  0  0  0
   -9.3433  -21.9145   34.2816 H   0  0  0  0  0  0  0  0  0  0  0  0
   -8.5906  -20.5964   33.4051 H   0  0  0  0  0  0  0  0  0  0  0  0
   -8.2852  -23.1942   32.7688 H   0  0  0  0  0  0  0  0  0  0  0  0
   -8.0287  -21.8838   31.6873 H   0  0  0  0  0  0  0  0  0  0  0  0
  -16.1119  -24.5310   25.5385 H   0  0  0  0  0  0  0  0  0  0  0  0
  -15.3805  -26.0842   25.3250 H   0  0  0  0  0  0  0  0  0  0  0  0
  -17.8481  -26.0426   26.2809 H   0  0  0  0  0  0  0  0  0  0  0  0
  -16.6838  -27.2002   26.9476 H   0  0  0  0  0  0  0  0  0  0  0  0
  -17.8091  -24.7825   28.2405 H   0  0  0  0  0  0  0  0  0  0  0  0
  -18.2341  -25.7679   30.7960 H   0  0  0  0  0  0  0  0  0  0  0  0
  -16.7868  -27.5513   32.2902 H   0  0  0  0  0  0  0  0  0  0  0  0
  -14.8514  -27.2358   28.7667 H   0  0  0  0  0  0  0  0  0  0  0  0
  -15.2695  -24.0905   28.7345 H   0  0  0  0  0  0  0  0  0  0  0  0
  -16.0393  -23.4803   27.3069 H   0  0  0  0  0  0  0  0  0  0  0  0
  1  2  2  0
  2  3  1  0
  3  4  2  0
  4  5  1  0
  5  6  2  0
  6  7  1  0
  7  8  1  0
  8  9  2  0
  9 10  1  0
 10 11  2  0
  9 12  1  0
 12 13  1  0
 13 14  1  0
 14 15  1  0
 15 16  1  0
  2 17  1  0
 17 18  1  0
 18 19  1  0
 19 20  1  0
 20 21  1  0
 21 22  2  0
 22 23  1  0
 23 24  2  0
 24 25  1  0
 20 26  1  0
 11  3  1  0
 26 17  1  0
 10  6  1  0
 25 21  1  0
 16  8  1  0
  4 27  1  0
  5 28  1  0
  7 29  1  0
 11 30  1  0
 12 31  1  0
 12 32  1  0
 13 33  1  0
 13 34  1  0
 14 35  1  0
 14 36  1  0
 15 37  1  0
 15 38  1  0
 16 39  1  0
 16 40  1  0
 18 41  1  0
 18 42  1  0
 19 43  1  0
 19 44  1  0
 20 45  1  0
 22 46  1  0
 23 47  1  0
 25 48  1  0
 26 49  1  0
 26 50  1  0
M  END
>  <Energy>  (21) 
113.3402093645779

>  <compound_id>  (21) 
51677

>  <target_id>  (21) 
1

>  <reference_id>  (21) 
3

>  <inspiration_ids>  (21) 
[3, 39]

>  <energy_score>  (21) 
27.825179125037437

>  <distance_score>  (21) 
4.099778258364065

>  <path>  (21) 
/opt/xchem-fragalysis-2/maxwin/BulkDock/SCRATCH/511021/C51677-P3/C51677-P3.minimised.mol

>  <scratch_subdir>  (21) 
/opt/xchem-fragalysis-2/maxwin/BulkDock/SCRATCH/511021/C51677-P3

>  <fragmenstein_runtime>  (21) 
51.66309571266174

>  <fragmenstein_outcome>  (21) 
too moved

>  <fragmenstein_mode>  (21) 
expansion

>  <fragmenstein_error>  (21) 


$$$$
C51677-P39
     RDKit          3D

 50 54  0  0  0  0  0  0  0  0999 V2000
  -12.3575  -26.3489   24.9889 O   0  0  0  0  0  0  0  0  0  0  0  0
  -13.1504  -25.7836   25.6900 C   0  0  0  0  0  0  0  0  0  0  0  0
  -12.6009  -24.8260   26.6411 C   0  0  0  0  0  0  0  0  0  0  0  0
  -12.1327  -23.5822   26.2708 C   0  0  0  0  0  0  0  0  0  0  0  0
  -11.7516  -22.6613   27.2541 C   0  0  0  0  0  0  0  0  0  0  0  0
  -11.8582  -23.0293   28.5775 C   0  0  0  0  0  0  0  0  0  0  0  0
  -11.7435  -22.3012   29.7311 N   0  0  0  0  0  0  0  0  0  0  0  0
  -11.8257  -23.1505   30.7993 C   0  0  0  0  0  0  0  0  0  0  0  0
  -11.8666  -24.4304   30.2863 C   0  0  0  0  0  0  0  0  0  0  0  0
  -12.1389  -24.3344   28.9234 C   0  0  0  0  0  0  0  0  0  0  0  0
  -12.5115  -25.2612   27.9536 C   0  0  0  0  0  0  0  0  0  0  0  0
  -11.6713  -25.7069   30.9837 C   0  0  0  0  0  0  0  0  0  0  0  0
  -10.4725  -25.6485   31.8955 C   0  0  0  0  0  0  0  0  0  0  0  0
  -10.6327  -24.7776   33.1370 C   0  0  0  0  0  0  0  0  0  0  0  0
  -11.8370  -23.8252   33.2005 C   0  0  0  0  0  0  0  0  0  0  0  0
  -11.7612  -22.6784   32.1975 C   0  0  0  0  0  0  0  0  0  0  0  0
  -14.5657  -25.9563   25.8253 N   0  0  0  0  0  0  0  0  0  0  0  0
  -15.4760  -26.9545   25.2283 C   0  0  0  0  0  0  0  0  0  0  0  0
  -16.9137  -26.5600   25.3721 C   0  0  0  0  0  0  0  0  0  0  0  0
  -16.7832  -25.3464   24.5328 C   0  0  0  0  0  0  0  0  0  0  0  0
  -17.8661  -24.3383   24.7107 C   0  0  0  0  0  0  0  0  0  0  0  0
  -19.2246  -24.5237   24.8962 C   0  0  0  0  0  0  0  0  0  0  0  0
  -19.7792  -23.2343   24.9107 C   0  0  0  0  0  0  0  0  0  0  0  0
  -18.8543  -22.2907   24.7425 N   0  0  0  0  0  0  0  0  0  0  0  0
  -17.7099  -22.9801   24.6167 N   0  0  0  0  0  0  0  0  0  0  0  0
  -15.3128  -25.0239   24.8485 C   0  0  0  0  0  0  0  0  0  0  0  0
  -12.1322  -23.2827   25.2267 H   0  0  0  0  0  0  0  0  0  0  0  0
  -11.4781  -21.6522   26.9843 H   0  0  0  0  0  0  0  0  0  0  0  0
  -11.5831  -21.3046   29.7743 H   0  0  0  0  0  0  0  0  0  0  0  0
  -12.7494  -26.2870   28.2122 H   0  0  0  0  0  0  0  0  0  0  0  0
  -11.5024  -26.5189   30.2658 H   0  0  0  0  0  0  0  0  0  0  0  0
  -12.5808  -25.9537   31.5067 H   0  0  0  0  0  0  0  0  0  0  0  0
  -10.2697  -26.6704   32.2039 H   0  0  0  0  0  0  0  0  0  0  0  0
   -9.5847  -25.3243   31.3362 H   0  0  0  0  0  0  0  0  0  0  0  0
   -9.7033  -24.2055   33.2280 H   0  0  0  0  0  0  0  0  0  0  0  0
  -10.6787  -25.4353   34.0136 H   0  0  0  0  0  0  0  0  0  0  0  0
  -11.8991  -23.3871   34.2003 H   0  0  0  0  0  0  0  0  0  0  0  0
  -12.7749  -24.3794   33.0854 H   0  0  0  0  0  0  0  0  0  0  0  0
  -10.8378  -22.1123   32.3268 H   0  0  0  0  0  0  0  0  0  0  0  0
  -12.5931  -21.9889   32.3843 H   0  0  0  0  0  0  0  0  0  0  0  0
  -15.1854  -27.2091   24.1987 H   0  0  0  0  0  0  0  0  0  0  0  0
  -15.3162  -27.8664   25.8147 H   0  0  0  0  0  0  0  0  0  0  0  0
  -17.6031  -27.3027   24.9598 H   0  0  0  0  0  0  0  0  0  0  0  0
  -17.1822  -26.3560   26.4141 H   0  0  0  0  0  0  0  0  0  0  0  0
  -16.8473  -25.6618   23.4815 H   0  0  0  0  0  0  0  0  0  0  0  0
  -19.7477  -25.4654   24.9906 H   0  0  0  0  0  0  0  0  0  0  0  0
  -20.8158  -22.9450   25.0274 H   0  0  0  0  0  0  0  0  0  0  0  0
  -16.8605  -22.4419   24.4822 H   0  0  0  0  0  0  0  0  0  0  0  0
  -14.7306  -24.9994   23.9156 H   0  0  0  0  0  0  0  0  0  0  0  0
  -15.2002  -24.0121   25.2400 H   0  0  0  0  0  0  0  0  0  0  0  0
  1  2  2  0
  2  3  1  0
  3  4  2  0
  4  5  1  0
  5  6  2  0
  6  7  1  0
  7  8  1  0
  8  9  2  0
  9 10  1  0
 10 11  2  0
  9 12  1  0
 12 13  1  0
 13 14  1  0
 14 15  1  0
 15 16  1  0
  2 17  1  0
 17 18  1  0
 18 19  1  0
 19 20  1  0
 20 21  1  0
 21 22  2  0
 22 23  1  0
 23 24  2  0
 24 25  1  0
 20 26  1  0
 11  3  1  0
 26 17  1  0
 10  6  1  0
 25 21  1  0
 16  8  1  0
  4 27  1  0
  5 28  1  0
  7 29  1  0
 11 30  1  0
 12 31  1  0
 12 32  1  0
 13 33  1  0
 13 34  1  0
 14 35  1  0
 14 36  1  0
 15 37  1  0
 15 38  1  0
 16 39  1  0
 16 40  1  0
 18 41  1  0
 18 42  1  0
 19 43  1  0
 19 44  1  0
 20 45  1  0
 22 46  1  0
 23 47  1  0
 25 48  1  0
 26 49  1  0
 26 50  1  0
M  END
>  <Energy>  (22) 
126.21033054054242

>  <compound_id>  (22) 
51677

>  <target_id>  (22) 
1

>  <reference_id>  (22) 
39

>  <inspiration_ids>  (22) 
[3, 39]

>  <energy_score>  (22) 
40.695300301003044

>  <distance_score>  (22) 
4.538351797901642

>  <path>  (22) 
/opt/xchem-fragalysis-2/maxwin/BulkDock/SCRATCH/511021/C51677-P39/C51677-P39.minimised.mol

>  <scratch_subdir>  (22) 
/opt/xchem-fragalysis-2/maxwin/BulkDock/SCRATCH/511021/C51677-P39

>  <fragmenstein_runtime>  (22) 
75.54547023773193

>  <fragmenstein_outcome>  (22) 
too moved

>  <fragmenstein_mode>  (22) 
expansion

>  <fragmenstein_error>  (22) 


$$$$
C51679-P3
     RDKit          3D

 44 47  0  0  0  0  0  0  0  0999 V2000
  -19.1922  -24.4020   25.8947 N   0  0  0  0  0  0  0  0  0  0  0  0
  -17.8392  -24.6528   25.4412 C   0  0  0  0  0  0  0  0  0  0  0  0
  -17.3642  -24.6103   24.3410 O   0  0  0  0  0  0  0  0  0  0  0  0
  -16.9046  -24.9119   26.6262 C   0  0  0  0  0  0  0  0  0  0  0  0
  -16.2562  -23.6243   27.0275 C   0  0  0  0  0  0  0  0  0  0  0  0
  -14.8388  -23.9495   26.6178 C   0  0  0  0  0  0  0  0  0  0  0  0
  -14.4788  -25.3273   27.1126 N   0  0  0  0  0  0  0  0  0  0  0  0
  -13.0887  -25.5687   26.9376 C   0  0  0  0  0  0  0  0  0  0  0  0
  -12.4897  -26.0532   26.0167 O   0  0  0  0  0  0  0  0  0  0  0  0
  -12.3198  -25.1177   28.1218 C   0  0  0  0  0  0  0  0  0  0  0  0
  -12.1913  -25.9569   29.2271 C   0  0  0  0  0  0  0  0  0  0  0  0
  -11.5284  -25.5169   30.3776 C   0  0  0  0  0  0  0  0  0  0  0  0
  -11.0386  -24.2055   30.3888 C   0  0  0  0  0  0  0  0  0  0  0  0
  -10.3481  -23.4958   31.3560 N   0  0  0  0  0  0  0  0  0  0  0  0
  -10.4888  -22.1637   31.0817 C   0  0  0  0  0  0  0  0  0  0  0  0
  -10.8782  -22.0392   29.7688 C   0  0  0  0  0  0  0  0  0  0  0  0
  -11.2371  -23.3308   29.3195 C   0  0  0  0  0  0  0  0  0  0  0  0
  -11.8196  -23.8111   28.1373 C   0  0  0  0  0  0  0  0  0  0  0  0
  -11.0632  -20.7412   29.0847 C   0  0  0  0  0  0  0  0  0  0  0  0
  -11.1171  -19.5571   30.0534 C   0  0  0  0  0  0  0  0  0  0  0  0
  -11.1735  -19.8548   31.5659 C   0  0  0  0  0  0  0  0  0  0  0  0
  -10.3387  -21.0558   32.0558 C   0  0  0  0  0  0  0  0  0  0  0  0
  -15.6548  -25.6982   26.2548 C   0  0  0  0  0  0  0  0  0  0  0  0
  -19.2634  -24.6481   26.8998 H   0  0  0  0  0  0  0  0  0  0  0  0
  -19.2101  -24.4184   26.9318 H   0  0  0  0  0  0  0  0  0  0  0  0
  -17.4212  -25.3883   27.4657 H   0  0  0  0  0  0  0  0  0  0  0  0
  -16.6362  -22.7283   26.5283 H   0  0  0  0  0  0  0  0  0  0  0  0
  -16.3276  -23.4792   28.1112 H   0  0  0  0  0  0  0  0  0  0  0  0
  -14.1880  -23.2269   27.1184 H   0  0  0  0  0  0  0  0  0  0  0  0
  -14.6133  -23.8065   25.5469 H   0  0  0  0  0  0  0  0  0  0  0  0
  -12.6071  -26.9618   29.1930 H   0  0  0  0  0  0  0  0  0  0  0  0
  -11.4447  -26.1610   31.2436 H   0  0  0  0  0  0  0  0  0  0  0  0
   -9.9894  -23.8785   32.2229 H   0  0  0  0  0  0  0  0  0  0  0  0
  -11.9371  -23.1584   27.2781 H   0  0  0  0  0  0  0  0  0  0  0  0
  -11.9745  -20.7608   28.4784 H   0  0  0  0  0  0  0  0  0  0  0  0
  -10.2432  -20.5921   28.3781 H   0  0  0  0  0  0  0  0  0  0  0  0
  -10.2823  -18.8888   29.8545 H   0  0  0  0  0  0  0  0  0  0  0  0
  -11.9675  -18.9487   29.7612 H   0  0  0  0  0  0  0  0  0  0  0  0
  -12.2197  -20.0378   31.8181 H   0  0  0  0  0  0  0  0  0  0  0  0
  -10.8913  -18.9569   32.1266 H   0  0  0  0  0  0  0  0  0  0  0  0
  -10.6935  -21.3592   33.0473 H   0  0  0  0  0  0  0  0  0  0  0  0
   -9.2863  -20.7913   32.1743 H   0  0  0  0  0  0  0  0  0  0  0  0
  -15.8353  -26.7597   26.4757 H   0  0  0  0  0  0  0  0  0  0  0  0
  -15.3744  -25.7142   25.1888 H   0  0  0  0  0  0  0  0  0  0  0  0
  1  2  1  0
  2  3  2  0
  2  4  1  0
  4  5  1  0
  5  6  1  0
  6  7  1  0
  7  8  1  0
  8  9  2  0
  8 10  1  0
 10 11  2  0
 11 12  1  0
 12 13  2  0
 13 14  1  0
 14 15  1  0
 15 16  2  0
 16 17  1  0
 17 18  2  0
 16 19  1  0
 19 20  1  0
 20 21  1  0
 21 22  1  0
  7 23  1  0
 23  4  1  0
 18 10  1  0
 17 13  1  0
 22 15  1  0
  1 24  1  0
  1 25  1  0
  4 26  1  0
  5 27  1  0
  5 28  1  0
  6 29  1  0
  6 30  1  0
 11 31  1  0
 12 32  1  0
 14 33  1  0
 18 34  1  0
 19 35  1  0
 19 36  1  0
 20 37  1  0
 20 38  1  0
 21 39  1  0
 21 40  1  0
 22 41  1  0
 22 42  1  0
 23 43  1  0
 23 44  1  0
M  END
>  <Energy>  (23) 
251.78367936138295

>  <compound_id>  (23) 
51679

>  <target_id>  (23) 
1

>  <reference_id>  (23) 
3

>  <inspiration_ids>  (23) 
[3, 39]

>  <energy_score>  (23) 
212.0534843635265

>  <distance_score>  (23) 
3.6008804128601626

>  <path>  (23) 
/opt/xchem-fragalysis-2/maxwin/BulkDock/SCRATCH/511021/C51679-P3/C51679-P3.minimised.mol

>  <scratch_subdir>  (23) 
/opt/xchem-fragalysis-2/maxwin/BulkDock/SCRATCH/511021/C51679-P3

>  <fragmenstein_runtime>  (23) 
13.153351306915283

>  <fragmenstein_outcome>  (23) 
too moved

>  <fragmenstein_mode>  (23) 
expansion

>  <fragmenstein_error>  (23) 


$$$$
C51679-P39
     RDKit          3D

 44 47  0  0  0  0  0  0  0  0999 V2000
  -14.2592  -25.6880   27.7216 N   0  0  0  0  0  0  0  0  0  0  0  0
  -13.8918  -25.8965   26.3304 C   0  0  0  0  0  0  0  0  0  0  0  0
  -14.5635  -26.1988   25.3815 O   0  0  0  0  0  0  0  0  0  0  0  0
  -12.4102  -25.5680   26.0675 C   0  0  0  0  0  0  0  0  0  0  0  0
  -12.1301  -24.1110   26.1643 C   0  0  0  0  0  0  0  0  0  0  0  0
  -11.2978  -24.0826   27.4305 C   0  0  0  0  0  0  0  0  0  0  0  0
  -11.6203  -25.2232   28.3920 N   0  0  0  0  0  0  0  0  0  0  0  0
  -10.8004  -25.1405   29.5435 C   0  0  0  0  0  0  0  0  0  0  0  0
   -9.7271  -25.6272   29.7713 O   0  0  0  0  0  0  0  0  0  0  0  0
  -11.4120  -24.4078   30.7207 C   0  0  0  0  0  0  0  0  0  0  0  0
  -10.8911  -24.8202   31.9549 C   0  0  0  0  0  0  0  0  0  0  0  0
  -11.4352  -24.3997   33.1551 C   0  0  0  0  0  0  0  0  0  0  0  0
  -12.4962  -23.5062   33.1131 C   0  0  0  0  0  0  0  0  0  0  0  0
  -13.2327  -23.0284   34.1698 N   0  0  0  0  0  0  0  0  0  0  0  0
  -14.2660  -22.2710   33.7119 C   0  0  0  0  0  0  0  0  0  0  0  0
  -14.1786  -22.2227   32.3390 C   0  0  0  0  0  0  0  0  0  0  0  0
  -13.0462  -23.0177   31.9285 C   0  0  0  0  0  0  0  0  0  0  0  0
  -12.4903  -23.4908   30.6984 C   0  0  0  0  0  0  0  0  0  0  0  0
  -15.3070  -21.6071   31.5957 C   0  0  0  0  0  0  0  0  0  0  0  0
  -16.1517  -20.6320   32.4196 C   0  0  0  0  0  0  0  0  0  0  0  0
  -16.5882  -21.3118   33.7113 C   0  0  0  0  0  0  0  0  0  0  0  0
  -15.3583  -21.6802   34.5408 C   0  0  0  0  0  0  0  0  0  0  0  0
  -11.4663  -26.0333   27.1309 C   0  0  0  0  0  0  0  0  0  0  0  0
  -13.4279  -25.3177   28.2433 H   0  0  0  0  0  0  0  0  0  0  0  0
  -13.3864  -25.5495   28.2895 H   0  0  0  0  0  0  0  0  0  0  0  0
  -12.1301  -26.0069   25.1069 H   0  0  0  0  0  0  0  0  0  0  0  0
  -11.5616  -23.7316   25.3120 H   0  0  0  0  0  0  0  0  0  0  0  0
  -13.0359  -23.5218   26.2553 H   0  0  0  0  0  0  0  0  0  0  0  0
  -10.2133  -24.0600   27.2308 H   0  0  0  0  0  0  0  0  0  0  0  0
  -11.4864  -23.1410   27.9618 H   0  0  0  0  0  0  0  0  0  0  0  0
  -10.0870  -25.5575   32.0076 H   0  0  0  0  0  0  0  0  0  0  0  0
  -11.0967  -24.8339   34.0879 H   0  0  0  0  0  0  0  0  0  0  0  0
  -13.0784  -23.3356   35.1244 H   0  0  0  0  0  0  0  0  0  0  0  0
  -12.9546  -23.1898   29.7710 H   0  0  0  0  0  0  0  0  0  0  0  0
  -15.9863  -22.4093   31.3508 H   0  0  0  0  0  0  0  0  0  0  0  0
  -14.9766  -21.1241   30.6937 H   0  0  0  0  0  0  0  0  0  0  0  0
  -17.0282  -20.3183   31.8419 H   0  0  0  0  0  0  0  0  0  0  0  0
  -15.5791  -19.7364   32.6669 H   0  0  0  0  0  0  0  0  0  0  0  0
  -17.1681  -22.2140   33.4788 H   0  0  0  0  0  0  0  0  0  0  0  0
  -17.2423  -20.6499   34.2899 H   0  0  0  0  0  0  0  0  0  0  0  0
  -15.6790  -22.3696   35.3216 H   0  0  0  0  0  0  0  0  0  0  0  0
  -14.9823  -20.7547   34.9874 H   0  0  0  0  0  0  0  0  0  0  0  0
  -11.7243  -27.0547   27.4407 H   0  0  0  0  0  0  0  0  0  0  0  0
  -10.4132  -26.1178   26.8339 H   0  0  0  0  0  0  0  0  0  0  0  0
  1  2  1  0
  2  3  2  0
  2  4  1  0
  4  5  1  0
  5  6  1  0
  6  7  1  0
  7  8  1  0
  8  9  2  0
  8 10  1  0
 10 11  2  0
 11 12  1  0
 12 13  2  0
 13 14  1  0
 14 15  1  0
 15 16  2  0
 16 17  1  0
 17 18  2  0
 16 19  1  0
 19 20  1  0
 20 21  1  0
 21 22  1  0
  7 23  1  0
 23  4  1  0
 18 10  1  0
 17 13  1  0
 22 15  1  0
  1 24  1  0
  1 25  1  0
  4 26  1  0
  5 27  1  0
  5 28  1  0
  6 29  1  0
  6 30  1  0
 11 31  1  0
 12 32  1  0
 14 33  1  0
 18 34  1  0
 19 35  1  0
 19 36  1  0
 20 37  1  0
 20 38  1  0
 21 39  1  0
 21 40  1  0
 22 41  1  0
 22 42  1  0
 23 43  1  0
 23 44  1  0
M  END
>  <Energy>  (24) 
241.04358232566582

>  <compound_id>  (24) 
51679

>  <target_id>  (24) 
1

>  <reference_id>  (24) 
39

>  <inspiration_ids>  (24) 
[3, 39]

>  <energy_score>  (24) 
201.3133873278133

>  <distance_score>  (24) 
2.9759746306988566

>  <path>  (24) 
/opt/xchem-fragalysis-2/maxwin/BulkDock/SCRATCH/511021/C51679-P39/C51679-P39.minimised.mol

>  <scratch_subdir>  (24) 
/opt/xchem-fragalysis-2/maxwin/BulkDock/SCRATCH/511021/C51679-P39

>  <fragmenstein_runtime>  (24) 
23.593231201171875

>  <fragmenstein_outcome>  (24) 
too moved

>  <fragmenstein_mode>  (24) 
expansion

>  <fragmenstein_error>  (24) 


$$$$
C51680-P3
     RDKit          3D

 41 44  0  0  0  0  0  0  0  0999 V2000
  -10.6620  -20.9814   27.9412 O   0  0  0  0  0  0  0  0  0  0  0  0
  -11.2044  -22.0194   27.6777 C   0  0  0  0  0  0  0  0  0  0  0  0
  -11.2016  -23.0454   28.7645 C   0  0  0  0  0  0  0  0  0  0  0  0
  -10.4988  -22.7639   29.9459 C   0  0  0  0  0  0  0  0  0  0  0  0
  -10.4354  -23.6736   30.9980 C   0  0  0  0  0  0  0  0  0  0  0  0
  -11.2125  -24.8248   30.8677 C   0  0  0  0  0  0  0  0  0  0  0  0
  -11.4757  -25.8169   31.7829 N   0  0  0  0  0  0  0  0  0  0  0  0
  -12.3946  -26.6825   31.2802 C   0  0  0  0  0  0  0  0  0  0  0  0
  -12.6709  -26.3150   29.9840 C   0  0  0  0  0  0  0  0  0  0  0  0
  -11.9477  -25.1267   29.7242 C   0  0  0  0  0  0  0  0  0  0  0  0
  -11.8874  -24.2578   28.6300 C   0  0  0  0  0  0  0  0  0  0  0  0
  -13.6391  -27.0526   29.1309 C   0  0  0  0  0  0  0  0  0  0  0  0
  -13.9395  -28.4393   29.7253 C   0  0  0  0  0  0  0  0  0  0  0  0
  -14.1786  -28.3824   31.2455 C   0  0  0  0  0  0  0  0  0  0  0  0
  -12.9548  -27.8494   32.0065 C   0  0  0  0  0  0  0  0  0  0  0  0
  -11.8785  -22.4358   26.4983 N   0  0  0  0  0  0  0  0  0  0  0  0
  -12.0349  -21.7587   25.1661 C   0  0  0  0  0  0  0  0  0  0  0  0
  -13.2625  -22.1148   24.3663 C   0  0  0  0  0  0  0  0  0  0  0  0
  -14.1447  -22.6067   25.4384 C   0  0  0  0  0  0  0  0  0  0  0  0
  -14.2505  -24.0249   25.4452 O   0  0  0  0  0  0  0  0  0  0  0  0
  -13.3208  -22.1068   26.5900 C   0  0  0  0  0  0  0  0  0  0  0  0
   -9.9686  -21.8222   30.0504 H   0  0  0  0  0  0  0  0  0  0  0  0
   -9.8693  -23.4515   31.8987 H   0  0  0  0  0  0  0  0  0  0  0  0
  -11.0487  -25.8721   32.6985 H   0  0  0  0  0  0  0  0  0  0  0  0
  -12.4087  -24.5198   27.7171 H   0  0  0  0  0  0  0  0  0  0  0  0
  -14.5689  -26.4743   29.0676 H   0  0  0  0  0  0  0  0  0  0  0  0
  -13.2507  -27.1655   28.1126 H   0  0  0  0  0  0  0  0  0  0  0  0
  -14.8165  -28.8667   29.2262 H   0  0  0  0  0  0  0  0  0  0  0  0
  -13.0972  -29.1142   29.5235 H   0  0  0  0  0  0  0  0  0  0  0  0
  -14.4346  -29.3797   31.6208 H   0  0  0  0  0  0  0  0  0  0  0  0
  -15.0432  -27.7354   31.4440 H   0  0  0  0  0  0  0  0  0  0  0  0
  -12.1900  -28.6286   32.0634 H   0  0  0  0  0  0  0  0  0  0  0  0
  -13.2372  -27.5802   33.0299 H   0  0  0  0  0  0  0  0  0  0  0  0
  -11.1436  -22.0377   24.5901 H   0  0  0  0  0  0  0  0  0  0  0  0
  -11.9649  -20.6665   25.2959 H   0  0  0  0  0  0  0  0  0  0  0  0
  -13.6478  -21.1939   23.9335 H   0  0  0  0  0  0  0  0  0  0  0  0
  -13.0770  -22.8216   23.5689 H   0  0  0  0  0  0  0  0  0  0  0  0
  -15.1528  -22.1856   25.4007 H   0  0  0  0  0  0  0  0  0  0  0  0
  -14.6621  -24.2880   26.2862 H   0  0  0  0  0  0  0  0  0  0  0  0
  -13.6900  -22.6221   27.4757 H   0  0  0  0  0  0  0  0  0  0  0  0
  -13.4204  -21.0309   26.7886 H   0  0  0  0  0  0  0  0  0  0  0  0
  1  2  2  0
  2  3  1  0
  3  4  2  0
  4  5  1  0
  5  6  2  0
  6  7  1  0
  7  8  1  0
  8  9  2  0
  9 10  1  0
 10 11  2  0
  9 12  1  0
 12 13  1  0
 13 14  1  0
 14 15  1  0
  2 16  1  0
 16 17  1  0
 17 18  1  0
 18 19  1  0
 19 20  1  0
 19 21  1  0
 11  3  1  0
 21 16  1  0
 10  6  1  0
 15  8  1  0
  4 22  1  0
  5 23  1  0
  7 24  1  0
 11 25  1  0
 12 26  1  0
 12 27  1  0
 13 28  1  0
 13 29  1  0
 14 30  1  0
 14 31  1  0
 15 32  1  0
 15 33  1  0
 17 34  1  0
 17 35  1  0
 18 36  1  0
 18 37  1  0
 19 38  1  0
 20 39  1  0
 21 40  1  0
 21 41  1  0
M  END
>  <Energy>  (25) 
104.02512284738246

>  <compound_id>  (25) 
51680

>  <target_id>  (25) 
1

>  <reference_id>  (25) 
3

>  <inspiration_ids>  (25) 
[3, 39]

>  <energy_score>  (25) 
23.57556711240416

>  <distance_score>  (25) 
4.117342474578647

>  <path>  (25) 
/opt/xchem-fragalysis-2/maxwin/BulkDock/SCRATCH/511021/C51680-P3/C51680-P3.minimised.mol

>  <scratch_subdir>  (25) 
/opt/xchem-fragalysis-2/maxwin/BulkDock/SCRATCH/511021/C51680-P3

>  <fragmenstein_runtime>  (25) 
23.68820309638977

>  <fragmenstein_outcome>  (25) 
too moved

>  <fragmenstein_mode>  (25) 
expansion

>  <fragmenstein_error>  (25) 


$$$$
C51680-P39
     RDKit          3D

 41 44  0  0  0  0  0  0  0  0999 V2000
  -12.3603  -26.5408   28.0544 O   0  0  0  0  0  0  0  0  0  0  0  0
  -12.9685  -25.5535   27.7456 C   0  0  0  0  0  0  0  0  0  0  0  0
  -12.5620  -24.2550   28.3335 C   0  0  0  0  0  0  0  0  0  0  0  0
  -11.6925  -23.3636   27.7285 C   0  0  0  0  0  0  0  0  0  0  0  0
  -11.2470  -22.2343   28.4284 C   0  0  0  0  0  0  0  0  0  0  0  0
  -11.6728  -22.0941   29.7482 C   0  0  0  0  0  0  0  0  0  0  0  0
  -11.1428  -21.4379   30.8356 N   0  0  0  0  0  0  0  0  0  0  0  0
  -11.4458  -22.2626   31.8887 C   0  0  0  0  0  0  0  0  0  0  0  0
  -12.7964  -22.4427   31.6808 C   0  0  0  0  0  0  0  0  0  0  0  0
  -12.6725  -22.8628   30.3236 C   0  0  0  0  0  0  0  0  0  0  0  0
  -13.0618  -23.9823   29.6008 C   0  0  0  0  0  0  0  0  0  0  0  0
  -13.6388  -22.9229   32.7932 C   0  0  0  0  0  0  0  0  0  0  0  0
  -12.8012  -23.7597   33.7624 C   0  0  0  0  0  0  0  0  0  0  0  0
  -11.5757  -24.4198   33.1144 C   0  0  0  0  0  0  0  0  0  0  0  0
  -10.6344  -23.4125   32.4373 C   0  0  0  0  0  0  0  0  0  0  0  0
  -14.1256  -25.3972   26.9468 N   0  0  0  0  0  0  0  0  0  0  0  0
  -15.0265  -26.4128   26.3221 C   0  0  0  0  0  0  0  0  0  0  0  0
  -15.9319  -25.8081   25.2787 C   0  0  0  0  0  0  0  0  0  0  0  0
  -14.9250  -24.9690   24.5850 C   0  0  0  0  0  0  0  0  0  0  0  0
  -15.3719  -23.6260   24.4453 O   0  0  0  0  0  0  0  0  0  0  0  0
  -13.7394  -25.1800   25.5075 C   0  0  0  0  0  0  0  0  0  0  0  0
  -11.3034  -23.5745   26.7384 H   0  0  0  0  0  0  0  0  0  0  0  0
  -10.4862  -21.5931   28.0148 H   0  0  0  0  0  0  0  0  0  0  0  0
  -10.3494  -20.8278   30.8021 H   0  0  0  0  0  0  0  0  0  0  0  0
  -13.5847  -24.7372   30.1294 H   0  0  0  0  0  0  0  0  0  0  0  0
  -14.4924  -23.4823   32.4505 H   0  0  0  0  0  0  0  0  0  0  0  0
  -14.0562  -22.0616   33.3300 H   0  0  0  0  0  0  0  0  0  0  0  0
  -12.4548  -23.0978   34.5634 H   0  0  0  0  0  0  0  0  0  0  0  0
  -13.4480  -24.5190   34.2078 H   0  0  0  0  0  0  0  0  0  0  0  0
  -11.9291  -25.1034   32.3340 H   0  0  0  0  0  0  0  0  0  0  0  0
  -11.0257  -25.0276   33.8404 H   0  0  0  0  0  0  0  0  0  0  0  0
   -9.8193  -23.1063   33.0735 H   0  0  0  0  0  0  0  0  0  0  0  0
  -10.1581  -23.9693   31.6231 H   0  0  0  0  0  0  0  0  0  0  0  0
  -15.6473  -26.7903   27.1451 H   0  0  0  0  0  0  0  0  0  0  0  0
  -14.4830  -27.3010   25.9865 H   0  0  0  0  0  0  0  0  0  0  0  0
  -16.3685  -26.5786   24.6360 H   0  0  0  0  0  0  0  0  0  0  0  0
  -16.7441  -25.2214   25.7105 H   0  0  0  0  0  0  0  0  0  0  0  0
  -14.7038  -25.3551   23.5954 H   0  0  0  0  0  0  0  0  0  0  0  0
  -14.6706  -23.0238   24.7711 H   0  0  0  0  0  0  0  0  0  0  0  0
  -13.1112  -24.2819   25.4843 H   0  0  0  0  0  0  0  0  0  0  0  0
  -13.0696  -25.9904   25.1701 H   0  0  0  0  0  0  0  0  0  0  0  0
  1  2  2  0
  2  3  1  0
  3  4  2  0
  4  5  1  0
  5  6  2  0
  6  7  1  0
  7  8  1  0
  8  9  2  0
  9 10  1  0
 10 11  2  0
  9 12  1  0
 12 13  1  0
 13 14  1  0
 14 15  1  0
  2 16  1  0
 16 17  1  0
 17 18  1  0
 18 19  1  0
 19 20  1  0
 19 21  1  0
 11  3  1  0
 21 16  1  0
 10  6  1  0
 15  8  1  0
  4 22  1  0
  5 23  1  0
  7 24  1  0
 11 25  1  0
 12 26  1  0
 12 27  1  0
 13 28  1  0
 13 29  1  0
 14 30  1  0
 14 31  1  0
 15 32  1  0
 15 33  1  0
 17 34  1  0
 17 35  1  0
 18 36  1  0
 18 37  1  0
 19 38  1  0
 20 39  1  0
 21 40  1  0
 21 41  1  0
M  END
>  <Energy>  (26) 
173.90524655860654

>  <compound_id>  (26) 
51680

>  <target_id>  (26) 
1

>  <reference_id>  (26) 
39

>  <inspiration_ids>  (26) 
[3, 39]

>  <energy_score>  (26) 
93.45569082362829

>  <distance_score>  (26) 
3.7857199027607984

>  <path>  (26) 
/opt/xchem-fragalysis-2/maxwin/BulkDock/SCRATCH/511021/C51680-P39/C51680-P39.minimised.mol

>  <scratch_subdir>  (26) 
/opt/xchem-fragalysis-2/maxwin/BulkDock/SCRATCH/511021/C51680-P39

>  <fragmenstein_runtime>  (26) 
18.9735267162323

>  <fragmenstein_outcome>  (26) 
too moved

>  <fragmenstein_mode>  (26) 
expansion

>  <fragmenstein_error>  (26) 


$$$$
C51681-P3
     RDKit          3D

 46 49  0  0  0  0  0  0  0  0999 V2000
   -9.5538  -25.1288   33.1485 N   0  0  0  0  0  0  0  0  0  0  0  0
   -9.7984  -24.4066   32.2859 C   0  0  0  0  0  0  0  0  0  0  0  0
  -10.5708  -23.7076   31.3021 C   0  0  0  0  0  0  0  0  0  0  0  0
  -11.5334  -24.7326   30.7774 C   0  0  0  0  0  0  0  0  0  0  0  0
  -12.4311  -25.1768   31.5114 O   0  0  0  0  0  0  0  0  0  0  0  0
  -11.6532  -25.2919   29.4340 C   0  0  0  0  0  0  0  0  0  0  0  0
  -11.5599  -26.6883   29.3954 C   0  0  0  0  0  0  0  0  0  0  0  0
  -12.3458  -27.4552   28.5470 C   0  0  0  0  0  0  0  0  0  0  0  0
  -13.3287  -26.7760   27.8376 C   0  0  0  0  0  0  0  0  0  0  0  0
  -14.3986  -27.2812   27.1381 N   0  0  0  0  0  0  0  0  0  0  0  0
  -15.2671  -26.2667   26.8620 C   0  0  0  0  0  0  0  0  0  0  0  0
  -14.6955  -25.0759   27.2463 C   0  0  0  0  0  0  0  0  0  0  0  0
  -13.4531  -25.3872   27.8543 C   0  0  0  0  0  0  0  0  0  0  0  0
  -12.5342  -24.6182   28.5836 C   0  0  0  0  0  0  0  0  0  0  0  0
  -15.4349  -23.7839   27.2040 C   0  0  0  0  0  0  0  0  0  0  0  0
  -16.7530  -23.8935   26.4171 C   0  0  0  0  0  0  0  0  0  0  0  0
  -17.4945  -25.2160   26.6809 C   0  0  0  0  0  0  0  0  0  0  0  0
  -16.6358  -26.4407   26.3180 C   0  0  0  0  0  0  0  0  0  0  0  0
   -9.7943  -22.8664   30.4039 C   0  0  0  0  0  0  0  0  0  0  0  0
   -8.6001  -22.8149   30.4586 O   0  0  0  0  0  0  0  0  0  0  0  0
  -10.7070  -22.2724   29.4859 N   0  0  0  0  0  0  0  0  0  0  0  0
  -10.4669  -21.5049   28.2588 C   0  0  0  0  0  0  0  0  0  0  0  0
  -11.5587  -20.5751   27.8476 C   0  0  0  0  0  0  0  0  0  0  0  0
  -11.3604  -19.7464   29.0399 C   0  0  0  0  0  0  0  0  0  0  0  0
  -11.1548  -20.8783   30.0085 C   0  0  0  0  0  0  0  0  0  0  0  0
  -11.1494  -22.9485   31.8349 H   0  0  0  0  0  0  0  0  0  0  0  0
  -11.0346  -27.2299   30.1733 H   0  0  0  0  0  0  0  0  0  0  0  0
  -12.3432  -28.5380   28.6186 H   0  0  0  0  0  0  0  0  0  0  0  0
  -14.5887  -28.2668   27.0125 H   0  0  0  0  0  0  0  0  0  0  0  0
  -12.7213  -23.5589   28.6811 H   0  0  0  0  0  0  0  0  0  0  0  0
  -14.8069  -22.9966   26.7751 H   0  0  0  0  0  0  0  0  0  0  0  0
  -15.6847  -23.5060   28.2330 H   0  0  0  0  0  0  0  0  0  0  0  0
  -17.3993  -23.0451   26.6703 H   0  0  0  0  0  0  0  0  0  0  0  0
  -16.5430  -23.8171   25.3476 H   0  0  0  0  0  0  0  0  0  0  0  0
  -18.4280  -25.2413   26.1075 H   0  0  0  0  0  0  0  0  0  0  0  0
  -17.7692  -25.2628   27.7428 H   0  0  0  0  0  0  0  0  0  0  0  0
  -16.5784  -26.5384   25.2274 H   0  0  0  0  0  0  0  0  0  0  0  0
  -17.1052  -27.3498   26.7095 H   0  0  0  0  0  0  0  0  0  0  0  0
  -10.3705  -22.2673   27.4761 H   0  0  0  0  0  0  0  0  0  0  0  0
   -9.4693  -21.0639   28.3454 H   0  0  0  0  0  0  0  0  0  0  0  0
  -11.3945  -20.0498   26.9155 H   0  0  0  0  0  0  0  0  0  0  0  0
  -12.5225  -21.0822   27.7916 H   0  0  0  0  0  0  0  0  0  0  0  0
  -12.1546  -19.0493   29.2678 H   0  0  0  0  0  0  0  0  0  0  0  0
  -10.4463  -19.1503   28.9880 H   0  0  0  0  0  0  0  0  0  0  0  0
  -12.0989  -21.0814   30.5116 H   0  0  0  0  0  0  0  0  0  0  0  0
  -10.5168  -20.5757   30.8480 H   0  0  0  0  0  0  0  0  0  0  0  0
  1  2  3  0
  2  3  1  0
  3  4  1  0
  4  5  2  0
  4  6  1  0
  6  7  2  0
  7  8  1  0
  8  9  2  0
  9 10  1  0
 10 11  1  0
 11 12  2  0
 12 13  1  0
 13 14  2  0
 12 15  1  0
 15 16  1  0
 16 17  1  0
 17 18  1  0
  3 19  1  0
 19 20  2  0
 19 21  1  0
 21 22  1  0
 22 23  1  0
 23 24  1  0
 24 25  1  0
 14  6  1  0
 25 21  1  0
 13  9  1  0
 18 11  1  0
  3 26  1  0
  7 27  1  0
  8 28  1  0
 10 29  1  0
 14 30  1  0
 15 31  1  0
 15 32  1  0
 16 33  1  0
 16 34  1  0
 17 35  1  0
 17 36  1  0
 18 37  1  0
 18 38  1  0
 22 39  1  0
 22 40  1  0
 23 41  1  0
 23 42  1  0
 24 43  1  0
 24 44  1  0
 25 45  1  0
 25 46  1  0
M  END
>  <Energy>  (27) 
128.04694532932444

>  <compound_id>  (27) 
51681

>  <target_id>  (27) 
1

>  <reference_id>  (27) 
3

>  <inspiration_ids>  (27) 
[3, 39]

>  <energy_score>  (27) 
60.190742680748286

>  <distance_score>  (27) 
5.214890603605428

>  <path>  (27) 
/opt/xchem-fragalysis-2/maxwin/BulkDock/SCRATCH/511021/C51681-P3/C51681-P3.minimised.mol

>  <scratch_subdir>  (27) 
/opt/xchem-fragalysis-2/maxwin/BulkDock/SCRATCH/511021/C51681-P3

>  <fragmenstein_runtime>  (27) 
26.68518376350403

>  <fragmenstein_outcome>  (27) 
too moved

>  <fragmenstein_mode>  (27) 
expansion

>  <fragmenstein_error>  (27) 


$$$$
C51681-P39
     RDKit          3D

 46 49  0  0  0  0  0  0  0  0999 V2000
  -11.2455  -27.4614   31.1406 N   0  0  0  0  0  0  0  0  0  0  0  0
  -11.0760  -26.7349   30.2523 C   0  0  0  0  0  0  0  0  0  0  0  0
  -10.9217  -25.8585   29.0812 C   0  0  0  0  0  0  0  0  0  0  0  0
  -10.9056  -24.3721   29.4340 C   0  0  0  0  0  0  0  0  0  0  0  0
  -10.6877  -23.4458   28.6522 O   0  0  0  0  0  0  0  0  0  0  0  0
  -11.2145  -23.9522   30.7909 C   0  0  0  0  0  0  0  0  0  0  0  0
  -10.5330  -24.4534   31.9005 C   0  0  0  0  0  0  0  0  0  0  0  0
  -11.1339  -24.3474   33.1344 C   0  0  0  0  0  0  0  0  0  0  0  0
  -12.3458  -23.6648   33.1823 C   0  0  0  0  0  0  0  0  0  0  0  0
  -13.2486  -23.5713   34.2022 N   0  0  0  0  0  0  0  0  0  0  0  0
  -14.3550  -22.9018   33.7862 C   0  0  0  0  0  0  0  0  0  0  0  0
  -14.1211  -22.4341   32.5239 C   0  0  0  0  0  0  0  0  0  0  0  0
  -12.9106  -23.0069   32.0954 C   0  0  0  0  0  0  0  0  0  0  0  0
  -12.3180  -23.1136   30.8563 C   0  0  0  0  0  0  0  0  0  0  0  0
  -15.1380  -21.6397   31.8048 C   0  0  0  0  0  0  0  0  0  0  0  0
  -16.5648  -21.8418   32.3346 C   0  0  0  0  0  0  0  0  0  0  0  0
  -16.5847  -21.7684   33.8560 C   0  0  0  0  0  0  0  0  0  0  0  0
  -15.6529  -22.8117   34.4904 C   0  0  0  0  0  0  0  0  0  0  0  0
  -11.9720  -26.4048   28.0953 C   0  0  0  0  0  0  0  0  0  0  0  0
  -12.1366  -27.5687   28.0257 O   0  0  0  0  0  0  0  0  0  0  0  0
  -12.5670  -25.2891   27.2846 N   0  0  0  0  0  0  0  0  0  0  0  0
  -13.6258  -25.3105   26.2103 C   0  0  0  0  0  0  0  0  0  0  0  0
  -13.6181  -24.1372   25.2583 C   0  0  0  0  0  0  0  0  0  0  0  0
  -12.2131  -23.7064   25.4509 C   0  0  0  0  0  0  0  0  0  0  0  0
  -11.7194  -24.9766   26.0818 C   0  0  0  0  0  0  0  0  0  0  0  0
   -9.9402  -26.0589   28.6306 H   0  0  0  0  0  0  0  0  0  0  0  0
   -9.6332  -25.0567   31.8053 H   0  0  0  0  0  0  0  0  0  0  0  0
  -10.7694  -24.9224   33.9764 H   0  0  0  0  0  0  0  0  0  0  0  0
  -13.1413  -24.0281   35.0978 H   0  0  0  0  0  0  0  0  0  0  0  0
  -12.7878  -22.7125   29.9677 H   0  0  0  0  0  0  0  0  0  0  0  0
  -15.0936  -21.8353   30.7440 H   0  0  0  0  0  0  0  0  0  0  0  0
  -14.9210  -20.5841   31.9607 H   0  0  0  0  0  0  0  0  0  0  0  0
  -16.9751  -22.8070   32.0284 H   0  0  0  0  0  0  0  0  0  0  0  0
  -17.2226  -21.0726   31.9132 H   0  0  0  0  0  0  0  0  0  0  0  0
  -17.6052  -21.9095   34.2299 H   0  0  0  0  0  0  0  0  0  0  0  0
  -16.2707  -20.7632   34.1679 H   0  0  0  0  0  0  0  0  0  0  0  0
  -15.5484  -22.4931   35.5140 H   0  0  0  0  0  0  0  0  0  0  0  0
  -16.1406  -23.7931   34.4854 H   0  0  0  0  0  0  0  0  0  0  0  0
  -13.6117  -26.2815   25.6876 H   0  0  0  0  0  0  0  0  0  0  0  0
  -14.5793  -25.3446   26.7525 H   0  0  0  0  0  0  0  0  0  0  0  0
  -13.9086  -24.4969   24.2720 H   0  0  0  0  0  0  0  0  0  0  0  0
  -14.3378  -23.3498   25.4156 H   0  0  0  0  0  0  0  0  0  0  0  0
  -12.1086  -22.9032   26.1822 H   0  0  0  0  0  0  0  0  0  0  0  0
  -11.6923  -23.4158   24.5409 H   0  0  0  0  0  0  0  0  0  0  0  0
  -10.7073  -24.7929   26.4606 H   0  0  0  0  0  0  0  0  0  0  0  0
  -11.5865  -25.8405   25.4064 H   0  0  0  0  0  0  0  0  0  0  0  0
  1  2  3  0
  2  3  1  0
  3  4  1  0
  4  5  2  0
  4  6  1  0
  6  7  2  0
  7  8  1  0
  8  9  2  0
  9 10  1  0
 10 11  1  0
 11 12  2  0
 12 13  1  0
 13 14  2  0
 12 15  1  0
 15 16  1  0
 16 17  1  0
 17 18  1  0
  3 19  1  0
 19 20  2  0
 19 21  1  0
 21 22  1  0
 22 23  1  0
 23 24  1  0
 24 25  1  0
 14  6  1  0
 25 21  1  0
 13  9  1  0
 18 11  1  0
  3 26  1  0
  7 27  1  0
  8 28  1  0
 10 29  1  0
 14 30  1  0
 15 31  1  0
 15 32  1  0
 16 33  1  0
 16 34  1  0
 17 35  1  0
 17 36  1  0
 18 37  1  0
 18 38  1  0
 22 39  1  0
 22 40  1  0
 23 41  1  0
 23 42  1  0
 24 43  1  0
 24 44  1  0
 25 45  1  0
 25 46  1  0
M  END
>  <Energy>  (28) 
115.82033940514931

>  <compound_id>  (28) 
51681

>  <target_id>  (28) 
1

>  <reference_id>  (28) 
39

>  <inspiration_ids>  (28) 
[3, 39]

>  <energy_score>  (28) 
44.945783276481336

>  <distance_score>  (28) 
3.4143289300208095

>  <path>  (28) 
/opt/xchem-fragalysis-2/maxwin/BulkDock/SCRATCH/511021/C51681-P39/C51681-P39.minimised.mol

>  <scratch_subdir>  (28) 
/opt/xchem-fragalysis-2/maxwin/BulkDock/SCRATCH/511021/C51681-P39

>  <fragmenstein_runtime>  (28) 
15.961479187011719

>  <fragmenstein_outcome>  (28) 
too moved

>  <fragmenstein_mode>  (28) 
expansion

>  <fragmenstein_error>  (28) 


$$$$
C51682-P3
     RDKit          3D

 50 53  0  0  0  0  0  0  0  0999 V2000
  -14.6710  -26.3233   30.9508 C   0  0  0  0  0  0  0  0  0  0  0  0
  -16.0288  -25.6939   30.6613 C   0  0  0  0  0  0  0  0  0  0  0  0
  -17.1051  -26.7472   30.4969 C   0  0  0  0  0  0  0  0  0  0  0  0
  -16.0010  -24.7282   29.6128 O   0  0  0  0  0  0  0  0  0  0  0  0
  -16.2054  -25.0748   28.2280 C   0  0  0  0  0  0  0  0  0  0  0  0
  -15.9076  -23.8136   27.4884 C   0  0  0  0  0  0  0  0  0  0  0  0
  -14.4062  -24.0281   27.3134 C   0  0  0  0  0  0  0  0  0  0  0  0
  -13.8473  -25.2329   28.0822 N   0  0  0  0  0  0  0  0  0  0  0  0
  -12.5026  -25.4446   27.7460 C   0  0  0  0  0  0  0  0  0  0  0  0
  -12.0086  -26.1227   26.8876 O   0  0  0  0  0  0  0  0  0  0  0  0
  -11.6771  -24.7309   28.7587 C   0  0  0  0  0  0  0  0  0  0  0  0
  -11.4503  -25.5963   29.8379 C   0  0  0  0  0  0  0  0  0  0  0  0
  -10.8676  -25.1571   31.0082 C   0  0  0  0  0  0  0  0  0  0  0  0
  -10.3858  -23.8690   31.0354 C   0  0  0  0  0  0  0  0  0  0  0  0
   -9.6360  -23.2635   32.0148 N   0  0  0  0  0  0  0  0  0  0  0  0
   -9.9225  -21.9419   31.9457 C   0  0  0  0  0  0  0  0  0  0  0  0
  -10.5477  -21.6830   30.7394 C   0  0  0  0  0  0  0  0  0  0  0  0
  -10.7424  -22.9264   30.0716 C   0  0  0  0  0  0  0  0  0  0  0  0
  -11.3937  -23.3616   28.8823 C   0  0  0  0  0  0  0  0  0  0  0  0
  -11.1650  -20.3597   30.4565 C   0  0  0  0  0  0  0  0  0  0  0  0
  -11.0763  -19.3877   31.6489 C   0  0  0  0  0  0  0  0  0  0  0  0
  -10.9843  -20.0650   33.0170 C   0  0  0  0  0  0  0  0  0  0  0  0
   -9.7929  -21.0178   33.0892 C   0  0  0  0  0  0  0  0  0  0  0  0
  -15.0795  -25.8523   27.5694 C   0  0  0  0  0  0  0  0  0  0  0  0
  -13.9121  -25.5513   31.0558 H   0  0  0  0  0  0  0  0  0  0  0  0
  -14.7003  -26.9030   31.8793 H   0  0  0  0  0  0  0  0  0  0  0  0
  -14.3574  -26.9982   30.1508 H   0  0  0  0  0  0  0  0  0  0  0  0
  -16.2862  -25.1128   31.5556 H   0  0  0  0  0  0  0  0  0  0  0  0
  -17.1865  -27.3741   31.3907 H   0  0  0  0  0  0  0  0  0  0  0  0
  -16.8991  -27.4019   29.6437 H   0  0  0  0  0  0  0  0  0  0  0  0
  -18.0784  -26.2794   30.3141 H   0  0  0  0  0  0  0  0  0  0  0  0
  -17.2143  -25.4538   28.0498 H   0  0  0  0  0  0  0  0  0  0  0  0
  -16.3979  -23.7692   26.5093 H   0  0  0  0  0  0  0  0  0  0  0  0
  -16.1618  -22.9121   28.0456 H   0  0  0  0  0  0  0  0  0  0  0  0
  -14.1343  -24.1122   26.2454 H   0  0  0  0  0  0  0  0  0  0  0  0
  -13.8557  -23.1437   27.6343 H   0  0  0  0  0  0  0  0  0  0  0  0
  -11.7898  -26.6309   29.7877 H   0  0  0  0  0  0  0  0  0  0  0  0
  -10.8252  -25.7697   31.8953 H   0  0  0  0  0  0  0  0  0  0  0  0
   -9.2138  -23.7408   32.8071 H   0  0  0  0  0  0  0  0  0  0  0  0
  -11.6939  -22.6489   28.1244 H   0  0  0  0  0  0  0  0  0  0  0  0
  -10.7781  -19.9019   29.5408 H   0  0  0  0  0  0  0  0  0  0  0  0
  -12.2076  -20.5709   30.2727 H   0  0  0  0  0  0  0  0  0  0  0  0
  -10.2224  -18.7168   31.5182 H   0  0  0  0  0  0  0  0  0  0  0  0
  -11.9619  -18.7608   31.6658 H   0  0  0  0  0  0  0  0  0  0  0  0
  -10.9771  -19.3229   33.8122 H   0  0  0  0  0  0  0  0  0  0  0  0
  -11.8963  -20.6222   33.1962 H   0  0  0  0  0  0  0  0  0  0  0  0
   -8.8439  -20.4801   33.0254 H   0  0  0  0  0  0  0  0  0  0  0  0
   -9.8128  -21.5664   34.0369 H   0  0  0  0  0  0  0  0  0  0  0  0
  -15.1168  -25.9963   26.4757 H   0  0  0  0  0  0  0  0  0  0  0  0
  -15.0643  -26.8729   27.9710 H   0  0  0  0  0  0  0  0  0  0  0  0
  1  2  1  0
  2  3  1  0
  2  4  1  0
  4  5  1  0
  5  6  1  0
  6  7  1  0
  7  8  1  0
  8  9  1  0
  9 10  2  0
  9 11  1  0
 11 12  2  0
 12 13  1  0
 13 14  2  0
 14 15  1  0
 15 16  1  0
 16 17  2  0
 17 18  1  0
 18 19  2  0
 17 20  1  0
 20 21  1  0
 21 22  1  0
 22 23  1  0
  8 24  1  0
 24  5  1  0
 19 11  1  0
 18 14  1  0
 23 16  1  0
  1 25  1  0
  1 26  1  0
  1 27  1  0
  2 28  1  0
  3 29  1  0
  3 30  1  0
  3 31  1  0
  5 32  1  0
  6 33  1  0
  6 34  1  0
  7 35  1  0
  7 36  1  0
 12 37  1  0
 13 38  1  0
 15 39  1  0
 19 40  1  0
 20 41  1  0
 20 42  1  0
 21 43  1  0
 21 44  1  0
 22 45  1  0
 22 46  1  0
 23 47  1  0
 23 48  1  0
 24 49  1  0
 24 50  1  0
M  END
>  <Energy>  (29) 
146.18350846728453

>  <compound_id>  (29) 
51682

>  <target_id>  (29) 
1

>  <reference_id>  (29) 
3

>  <inspiration_ids>  (29) 
[3, 39]

>  <energy_score>  (29) 
57.23324429436556

>  <distance_score>  (29) 
3.837785837983632

>  <path>  (29) 
/opt/xchem-fragalysis-2/maxwin/BulkDock/SCRATCH/511021/C51682-P3/C51682-P3.minimised.mol

>  <scratch_subdir>  (29) 
/opt/xchem-fragalysis-2/maxwin/BulkDock/SCRATCH/511021/C51682-P3

>  <fragmenstein_runtime>  (29) 
46.466254234313965

>  <fragmenstein_outcome>  (29) 
too moved

>  <fragmenstein_mode>  (29) 
expansion

>  <fragmenstein_error>  (29) 


$$$$
C51682-P39
     RDKit          3D

 50 53  0  0  0  0  0  0  0  0999 V2000
  -10.0805  -23.8719   32.4898 C   0  0  0  0  0  0  0  0  0  0  0  0
  -10.6707  -25.2158   32.2399 C   0  0  0  0  0  0  0  0  0  0  0  0
  -10.4826  -25.7981   33.6191 C   0  0  0  0  0  0  0  0  0  0  0  0
   -9.9664  -25.9118   31.1961 O   0  0  0  0  0  0  0  0  0  0  0  0
  -10.4912  -25.9755   29.8425 C   0  0  0  0  0  0  0  0  0  0  0  0
  -11.9340  -26.3312   29.7948 C   0  0  0  0  0  0  0  0  0  0  0  0
  -12.4982  -24.9263   29.5781 C   0  0  0  0  0  0  0  0  0  0  0  0
  -11.5305  -23.8677   29.9775 N   0  0  0  0  0  0  0  0  0  0  0  0
  -12.0963  -22.5990   29.8122 C   0  0  0  0  0  0  0  0  0  0  0  0
  -12.0840  -21.8574   28.8734 O   0  0  0  0  0  0  0  0  0  0  0  0
  -12.7066  -22.1709   31.1201 C   0  0  0  0  0  0  0  0  0  0  0  0
  -11.9045  -21.5340   32.0637 C   0  0  0  0  0  0  0  0  0  0  0  0
  -12.4207  -21.0779   33.2817 C   0  0  0  0  0  0  0  0  0  0  0  0
  -13.7993  -21.1383   33.4544 C   0  0  0  0  0  0  0  0  0  0  0  0
  -14.5744  -20.5208   34.4036 N   0  0  0  0  0  0  0  0  0  0  0  0
  -15.8895  -20.7486   34.1424 C   0  0  0  0  0  0  0  0  0  0  0  0
  -15.9771  -21.5117   32.9960 C   0  0  0  0  0  0  0  0  0  0  0  0
  -14.6515  -21.7238   32.5255 C   0  0  0  0  0  0  0  0  0  0  0  0
  -14.0738  -22.2784   31.3655 C   0  0  0  0  0  0  0  0  0  0  0  0
  -17.2930  -21.8994   32.4077 C   0  0  0  0  0  0  0  0  0  0  0  0
  -18.4426  -21.6977   33.4149 C   0  0  0  0  0  0  0  0  0  0  0  0
  -18.3316  -20.3590   34.1654 C   0  0  0  0  0  0  0  0  0  0  0  0
  -17.0239  -20.2588   34.9696 C   0  0  0  0  0  0  0  0  0  0  0  0
  -10.6423  -24.6622   29.0917 C   0  0  0  0  0  0  0  0  0  0  0  0
   -9.0174  -23.9187   32.7299 H   0  0  0  0  0  0  0  0  0  0  0  0
  -10.1919  -23.2554   31.6383 H   0  0  0  0  0  0  0  0  0  0  0  0
  -10.6276  -23.3756   33.2837 H   0  0  0  0  0  0  0  0  0  0  0  0
  -11.7430  -25.1574   32.0550 H   0  0  0  0  0  0  0  0  0  0  0  0
  -11.1536  -25.3341   34.3507 H   0  0  0  0  0  0  0  0  0  0  0  0
   -9.4597  -25.6272   33.9600 H   0  0  0  0  0  0  0  0  0  0  0  0
  -10.6728  -26.8554   33.6323 H   0  0  0  0  0  0  0  0  0  0  0  0
   -9.8671  -26.6748   29.2862 H   0  0  0  0  0  0  0  0  0  0  0  0
  -12.1859  -26.9681   28.9399 H   0  0  0  0  0  0  0  0  0  0  0  0
  -12.2736  -26.8191   30.7090 H   0  0  0  0  0  0  0  0  0  0  0  0
  -13.3287  -24.7608   30.2488 H   0  0  0  0  0  0  0  0  0  0  0  0
  -12.9259  -24.7619   28.5732 H   0  0  0  0  0  0  0  0  0  0  0  0
  -10.8673  -21.3125   31.8294 H   0  0  0  0  0  0  0  0  0  0  0  0
  -11.8188  -20.4990   33.9693 H   0  0  0  0  0  0  0  0  0  0  0  0
  -14.2062  -19.9518   35.1530 H   0  0  0  0  0  0  0  0  0  0  0  0
  -14.7146  -22.6965   30.6155 H   0  0  0  0  0  0  0  0  0  0  0  0
  -17.2880  -22.9435   32.0887 H   0  0  0  0  0  0  0  0  0  0  0  0
  -17.4785  -21.2750   31.5257 H   0  0  0  0  0  0  0  0  0  0  0  0
  -18.4333  -22.5162   34.1463 H   0  0  0  0  0  0  0  0  0  0  0  0
  -19.4015  -21.7519   32.8872 H   0  0  0  0  0  0  0  0  0  0  0  0
  -18.3785  -19.5396   33.4367 H   0  0  0  0  0  0  0  0  0  0  0  0
  -19.1858  -20.2357   34.8405 H   0  0  0  0  0  0  0  0  0  0  0  0
  -16.8609  -19.2229   35.2865 H   0  0  0  0  0  0  0  0  0  0  0  0
  -17.1021  -20.8766   35.8719 H   0  0  0  0  0  0  0  0  0  0  0  0
  -10.9572  -24.7149   28.0331 H   0  0  0  0  0  0  0  0  0  0  0  0
   -9.6701  -24.1854   29.0211 H   0  0  0  0  0  0  0  0  0  0  0  0
  1  2  1  0
  2  3  1  0
  2  4  1  0
  4  5  1  0
  5  6  1  0
  6  7  1  0
  7  8  1  0
  8  9  1  0
  9 10  2  0
  9 11  1  0
 11 12  2  0
 12 13  1  0
 13 14  2  0
 14 15  1  0
 15 16  1  0
 16 17  2  0
 17 18  1  0
 18 19  2  0
 17 20  1  0
 20 21  1  0
 21 22  1  0
 22 23  1  0
  8 24  1  0
 24  5  1  0
 19 11  1  0
 18 14  1  0
 23 16  1  0
  1 25  1  0
  1 26  1  0
  1 27  1  0
  2 28  1  0
  3 29  1  0
  3 30  1  0
  3 31  1  0
  5 32  1  0
  6 33  1  0
  6 34  1  0
  7 35  1  0
  7 36  1  0
 12 37  1  0
 13 38  1  0
 15 39  1  0
 19 40  1  0
 20 41  1  0
 20 42  1  0
 21 43  1  0
 21 44  1  0
 22 45  1  0
 22 46  1  0
 23 47  1  0
 23 48  1  0
 24 49  1  0
 24 50  1  0
M  END
>  <Energy>  (30) 
146.70092081361636

>  <compound_id>  (30) 
51682

>  <target_id>  (30) 
1

>  <reference_id>  (30) 
39

>  <inspiration_ids>  (30) 
[3, 39]

>  <energy_score>  (30) 
57.7506566406974

>  <distance_score>  (30) 
3.6782369402873547

>  <path>  (30) 
/opt/xchem-fragalysis-2/maxwin/BulkDock/SCRATCH/511021/C51682-P39/C51682-P39.minimised.mol

>  <scratch_subdir>  (30) 
/opt/xchem-fragalysis-2/maxwin/BulkDock/SCRATCH/511021/C51682-P39

>  <fragmenstein_runtime>  (30) 
53.811349391937256

>  <fragmenstein_outcome>  (30) 
too moved

>  <fragmenstein_mode>  (30) 
expansion

>  <fragmenstein_error>  (30) 


$$$$
C51687-P3
     RDKit          3D

 49 52  0  0  0  0  0  0  0  0999 V2000
  -15.2064  -24.5008   26.1928 C   0  0  0  0  0  0  0  0  0  0  0  0
  -13.9605  -24.1655   25.3816 C   0  0  0  0  0  0  0  0  0  0  0  0
  -13.5652  -22.6571   25.4825 C   0  0  0  0  0  0  0  0  0  0  0  0
  -12.6834  -22.1772   24.3691 C   0  0  0  0  0  0  0  0  0  0  0  0
  -12.5172  -20.8421   24.9535 C   0  0  0  0  0  0  0  0  0  0  0  0
  -12.6165  -21.2172   26.4276 C   0  0  0  0  0  0  0  0  0  0  0  0
  -12.8445  -22.7036   26.7543 N   0  0  0  0  0  0  0  0  0  0  0  0
  -11.6371  -23.3095   27.0947 C   0  0  0  0  0  0  0  0  0  0  0  0
  -10.8296  -23.8712   26.4164 O   0  0  0  0  0  0  0  0  0  0  0  0
  -11.4603  -23.2988   28.5397 C   0  0  0  0  0  0  0  0  0  0  0  0
  -10.5272  -22.6918   29.3549 C   0  0  0  0  0  0  0  0  0  0  0  0
  -10.2381  -23.2812   30.6013 C   0  0  0  0  0  0  0  0  0  0  0  0
  -10.9179  -24.4710   30.9421 C   0  0  0  0  0  0  0  0  0  0  0  0
  -10.8017  -25.3252   32.0129 N   0  0  0  0  0  0  0  0  0  0  0  0
  -11.7880  -26.3037   31.9688 C   0  0  0  0  0  0  0  0  0  0  0  0
  -12.5071  -26.1264   30.8106 C   0  0  0  0  0  0  0  0  0  0  0  0
  -11.9326  -25.0102   30.1658 C   0  0  0  0  0  0  0  0  0  0  0  0
  -12.2257  -24.3960   28.9704 C   0  0  0  0  0  0  0  0  0  0  0  0
  -13.6618  -26.9407   30.3085 C   0  0  0  0  0  0  0  0  0  0  0  0
  -13.6207  -28.4026   30.7345 C   0  0  0  0  0  0  0  0  0  0  0  0
  -14.0283  -28.6416   32.1906 C   0  0  0  0  0  0  0  0  0  0  0  0
  -13.3877  -27.7356   33.2457 C   0  0  0  0  0  0  0  0  0  0  0  0
  -11.9262  -27.4137   32.9607 C   0  0  0  0  0  0  0  0  0  0  0  0
  -15.4323  -25.5689   26.1117 H   0  0  0  0  0  0  0  0  0  0  0  0
  -16.0739  -23.9447   25.8239 H   0  0  0  0  0  0  0  0  0  0  0  0
  -15.0769  -24.2634   27.2528 H   0  0  0  0  0  0  0  0  0  0  0  0
  -13.1701  -24.8301   25.7523 H   0  0  0  0  0  0  0  0  0  0  0  0
  -14.0886  -24.4850   24.3643 H   0  0  0  0  0  0  0  0  0  0  0  0
  -14.5166  -22.1003   25.5572 H   0  0  0  0  0  0  0  0  0  0  0  0
  -13.1464  -22.1802   23.3886 H   0  0  0  0  0  0  0  0  0  0  0  0
  -11.7072  -22.6589   24.3142 H   0  0  0  0  0  0  0  0  0  0  0  0
  -13.3505  -20.2108   24.6688 H   0  0  0  0  0  0  0  0  0  0  0  0
  -11.6209  -20.3301   24.6234 H   0  0  0  0  0  0  0  0  0  0  0  0
  -11.6853  -20.9108   26.9234 H   0  0  0  0  0  0  0  0  0  0  0  0
  -13.3707  -20.6360   26.9382 H   0  0  0  0  0  0  0  0  0  0  0  0
   -9.9564  -21.8433   28.9958 H   0  0  0  0  0  0  0  0  0  0  0  0
   -9.4643  -22.8730   31.2464 H   0  0  0  0  0  0  0  0  0  0  0  0
  -10.0909  -25.2269   32.7310 H   0  0  0  0  0  0  0  0  0  0  0  0
  -12.9626  -24.8555   28.3156 H   0  0  0  0  0  0  0  0  0  0  0  0
  -13.6608  -26.9181   29.2118 H   0  0  0  0  0  0  0  0  0  0  0  0
  -14.6003  -26.4747   30.6324 H   0  0  0  0  0  0  0  0  0  0  0  0
  -14.3110  -28.9730   30.1001 H   0  0  0  0  0  0  0  0  0  0  0  0
  -12.6248  -28.8254   30.5502 H   0  0  0  0  0  0  0  0  0  0  0  0
  -13.7935  -29.6857   32.4348 H   0  0  0  0  0  0  0  0  0  0  0  0
  -15.1185  -28.5534   32.2795 H   0  0  0  0  0  0  0  0  0  0  0  0
  -13.4590  -28.2476   34.2135 H   0  0  0  0  0  0  0  0  0  0  0  0
  -13.9807  -26.8192   33.3432 H   0  0  0  0  0  0  0  0  0  0  0  0
  -11.4112  -27.1665   33.8817 H   0  0  0  0  0  0  0  0  0  0  0  0
  -11.4236  -28.3075   32.5825 H   0  0  0  0  0  0  0  0  0  0  0  0
  1  2  1  0
  2  3  1  0
  3  4  1  0
  4  5  1  0
  5  6  1  0
  6  7  1  0
  7  8  1  0
  8  9  2  0
  8 10  1  0
 10 11  2  0
 11 12  1  0
 12 13  2  0
 13 14  1  0
 14 15  1  0
 15 16  2  0
 16 17  1  0
 17 18  2  0
 16 19  1  0
 19 20  1  0
 20 21  1  0
 21 22  1  0
 22 23  1  0
  7  3  1  0
 18 10  1  0
 17 13  1  0
 23 15  1  0
  1 24  1  0
  1 25  1  0
  1 26  1  0
  2 27  1  0
  2 28  1  0
  3 29  1  0
  4 30  1  0
  4 31  1  0
  5 32  1  0
  5 33  1  0
  6 34  1  0
  6 35  1  0
 11 36  1  0
 12 37  1  0
 14 38  1  0
 18 39  1  0
 19 40  1  0
 19 41  1  0
 20 42  1  0
 20 43  1  0
 21 44  1  0
 21 45  1  0
 22 46  1  0
 22 47  1  0
 23 48  1  0
 23 49  1  0
M  END
>  <Energy>  (31) 
123.14306769009492

>  <compound_id>  (31) 
51687

>  <target_id>  (31) 
1

>  <reference_id>  (31) 
3

>  <inspiration_ids>  (31) 
[3, 39]

>  <energy_score>  (31) 
39.12069745543744

>  <distance_score>  (31) 
3.7305694601028807

>  <path>  (31) 
/opt/xchem-fragalysis-2/maxwin/BulkDock/SCRATCH/511021/C51687-P3/C51687-P3.minimised.mol

>  <scratch_subdir>  (31) 
/opt/xchem-fragalysis-2/maxwin/BulkDock/SCRATCH/511021/C51687-P3

>  <fragmenstein_runtime>  (31) 
18.041954278945923

>  <fragmenstein_outcome>  (31) 
too moved

>  <fragmenstein_mode>  (31) 
expansion

>  <fragmenstein_error>  (31) 


$$$$
C51687-P39
     RDKit          3D

 49 52  0  0  0  0  0  0  0  0999 V2000
  -11.8882  -27.2165   29.2478 C   0  0  0  0  0  0  0  0  0  0  0  0
  -11.4332  -26.5942   27.9412 C   0  0  0  0  0  0  0  0  0  0  0  0
  -12.3738  -25.4812   27.4698 C   0  0  0  0  0  0  0  0  0  0  0  0
  -12.1572  -25.2403   25.9887 C   0  0  0  0  0  0  0  0  0  0  0  0
  -12.3402  -23.7933   25.9957 C   0  0  0  0  0  0  0  0  0  0  0  0
  -11.7738  -23.5824   27.3729 C   0  0  0  0  0  0  0  0  0  0  0  0
  -12.4164  -24.3411   28.5024 N   0  0  0  0  0  0  0  0  0  0  0  0
  -11.6737  -24.1474   29.7075 C   0  0  0  0  0  0  0  0  0  0  0  0
  -10.7617  -24.7802   30.1765 O   0  0  0  0  0  0  0  0  0  0  0  0
  -12.1317  -23.0694   30.5962 C   0  0  0  0  0  0  0  0  0  0  0  0
  -11.3734  -21.9201   30.6191 C   0  0  0  0  0  0  0  0  0  0  0  0
  -11.2194  -21.2417   31.8176 C   0  0  0  0  0  0  0  0  0  0  0  0
  -12.2122  -21.4165   32.7680 C   0  0  0  0  0  0  0  0  0  0  0  0
  -12.5146  -20.6630   33.8783 N   0  0  0  0  0  0  0  0  0  0  0  0
  -13.8609  -20.8078   34.0972 C   0  0  0  0  0  0  0  0  0  0  0  0
  -14.2021  -22.0525   33.5892 C   0  0  0  0  0  0  0  0  0  0  0  0
  -13.1854  -22.3908   32.6536 C   0  0  0  0  0  0  0  0  0  0  0  0
  -12.9880  -23.3585   31.6601 C   0  0  0  0  0  0  0  0  0  0  0  0
  -15.5237  -22.6973   33.7767 C   0  0  0  0  0  0  0  0  0  0  0  0
  -16.6294  -21.9640   33.0257 C   0  0  0  0  0  0  0  0  0  0  0  0
  -16.6728  -20.4406   33.2257 C   0  0  0  0  0  0  0  0  0  0  0  0
  -16.1958  -19.9513   34.5998 C   0  0  0  0  0  0  0  0  0  0  0  0
  -14.6830  -19.7236   34.7033 C   0  0  0  0  0  0  0  0  0  0  0  0
  -12.4770  -26.5465   29.8653 H   0  0  0  0  0  0  0  0  0  0  0  0
  -11.0264  -27.4663   29.8666 H   0  0  0  0  0  0  0  0  0  0  0  0
  -12.4927  -28.1086   29.0611 H   0  0  0  0  0  0  0  0  0  0  0  0
  -10.4144  -26.2026   28.0502 H   0  0  0  0  0  0  0  0  0  0  0  0
  -11.3811  -27.3766   27.1824 H   0  0  0  0  0  0  0  0  0  0  0  0
  -13.3951  -25.8846   27.5523 H   0  0  0  0  0  0  0  0  0  0  0  0
  -12.8816  -25.7750   25.3672 H   0  0  0  0  0  0  0  0  0  0  0  0
  -11.1524  -25.5190   25.6548 H   0  0  0  0  0  0  0  0  0  0  0  0
  -13.3957  -23.5597   25.8958 H   0  0  0  0  0  0  0  0  0  0  0  0
  -11.7906  -23.2884   25.2024 H   0  0  0  0  0  0  0  0  0  0  0  0
  -10.6835  -23.7594   27.4031 H   0  0  0  0  0  0  0  0  0  0  0  0
  -11.8769  -22.5217   27.6334 H   0  0  0  0  0  0  0  0  0  0  0  0
  -10.7828  -21.6447   29.7556 H   0  0  0  0  0  0  0  0  0  0  0  0
  -10.4752  -20.4757   31.9480 H   0  0  0  0  0  0  0  0  0  0  0  0
  -11.9665  -19.8699   34.1843 H   0  0  0  0  0  0  0  0  0  0  0  0
  -13.5060  -24.2930   31.6977 H   0  0  0  0  0  0  0  0  0  0  0  0
  -15.4922  -23.7371   33.4626 H   0  0  0  0  0  0  0  0  0  0  0  0
  -15.7628  -22.7295   34.8458 H   0  0  0  0  0  0  0  0  0  0  0  0
  -16.5459  -22.1585   31.9517 H   0  0  0  0  0  0  0  0  0  0  0  0
  -17.5913  -22.3900   33.3378 H   0  0  0  0  0  0  0  0  0  0  0  0
  -17.7108  -20.1170   33.0765 H   0  0  0  0  0  0  0  0  0  0  0  0
  -16.0954  -19.9498   32.4333 H   0  0  0  0  0  0  0  0  0  0  0  0
  -16.5372  -20.6373   35.3836 H   0  0  0  0  0  0  0  0  0  0  0  0
  -16.6844  -18.9919   34.8139 H   0  0  0  0  0  0  0  0  0  0  0  0
  -14.4467  -18.7923   34.1853 H   0  0  0  0  0  0  0  0  0  0  0  0
  -14.3896  -19.5189   35.7337 H   0  0  0  0  0  0  0  0  0  0  0  0
  1  2  1  0
  2  3  1  0
  3  4  1  0
  4  5  1  0
  5  6  1  0
  6  7  1  0
  7  8  1  0
  8  9  2  0
  8 10  1  0
 10 11  2  0
 11 12  1  0
 12 13  2  0
 13 14  1  0
 14 15  1  0
 15 16  2  0
 16 17  1  0
 17 18  2  0
 16 19  1  0
 19 20  1  0
 20 21  1  0
 21 22  1  0
 22 23  1  0
  7  3  1  0
 18 10  1  0
 17 13  1  0
 23 15  1  0
  1 24  1  0
  1 25  1  0
  1 26  1  0
  2 27  1  0
  2 28  1  0
  3 29  1  0
  4 30  1  0
  4 31  1  0
  5 32  1  0
  5 33  1  0
  6 34  1  0
  6 35  1  0
 11 36  1  0
 12 37  1  0
 14 38  1  0
 18 39  1  0
 19 40  1  0
 19 41  1  0
 20 42  1  0
 20 43  1  0
 21 44  1  0
 21 45  1  0
 22 46  1  0
 22 47  1  0
 23 48  1  0
 23 49  1  0
M  END
>  <Energy>  (32) 
135.62172237113964

>  <compound_id>  (32) 
51687

>  <target_id>  (32) 
1

>  <reference_id>  (32) 
39

>  <inspiration_ids>  (32) 
[3, 39]

>  <energy_score>  (32) 
51.59935213648191

>  <distance_score>  (32) 
4.275887932232424

>  <path>  (32) 
/opt/xchem-fragalysis-2/maxwin/BulkDock/SCRATCH/511021/C51687-P39/C51687-P39.minimised.mol

>  <scratch_subdir>  (32) 
/opt/xchem-fragalysis-2/maxwin/BulkDock/SCRATCH/511021/C51687-P39

>  <fragmenstein_runtime>  (32) 
20.250731468200684

>  <fragmenstein_outcome>  (32) 
too moved

>  <fragmenstein_mode>  (32) 
expansion

>  <fragmenstein_error>  (32) 


$$$$
C51688-P3
     RDKit          3D

 52 56  0  0  0  0  0  0  0  0999 V2000
  -12.0140  -24.9654   30.9925 O   0  0  0  0  0  0  0  0  0  0  0  0
  -11.9333  -24.6024   29.8507 C   0  0  0  0  0  0  0  0  0  0  0  0
  -11.5072  -23.3220   29.2819 N   0  0  0  0  0  0  0  0  0  0  0  0
  -11.1552  -22.1055   29.9011 C   0  0  0  0  0  0  0  0  0  0  0  0
  -11.2805  -20.9962   29.0672 C   0  0  0  0  0  0  0  0  0  0  0  0
  -11.3046  -19.7147   29.5944 C   0  0  0  0  0  0  0  0  0  0  0  0
  -11.2464  -19.5217   30.9596 C   0  0  0  0  0  0  0  0  0  0  0  0
  -11.0527  -20.6098   31.7728 C   0  0  0  0  0  0  0  0  0  0  0  0
  -10.8059  -21.8829   31.2368 C   0  0  0  0  0  0  0  0  0  0  0  0
  -10.1517  -22.8239   32.0226 N   0  0  0  0  0  0  0  0  0  0  0  0
   -9.3188  -23.7680   31.2633 C   0  0  0  0  0  0  0  0  0  0  0  0
   -8.2777  -24.1241   32.2598 C   0  0  0  0  0  0  0  0  0  0  0  0
   -7.9553  -22.7546   32.7972 C   0  0  0  0  0  0  0  0  0  0  0  0
   -9.3390  -22.2856   33.1422 C   0  0  0  0  0  0  0  0  0  0  0  0
  -12.4413  -25.5689   28.8136 C   0  0  0  0  0  0  0  0  0  0  0  0
  -13.6931  -26.1262   29.1097 C   0  0  0  0  0  0  0  0  0  0  0  0
  -14.7188  -26.0762   28.1650 C   0  0  0  0  0  0  0  0  0  0  0  0
  -14.4400  -25.2278   27.0964 C   0  0  0  0  0  0  0  0  0  0  0  0
  -15.2900  -24.5293   26.2713 N   0  0  0  0  0  0  0  0  0  0  0  0
  -14.5895  -23.4877   25.7345 C   0  0  0  0  0  0  0  0  0  0  0  0
  -13.2437  -23.6656   25.9895 C   0  0  0  0  0  0  0  0  0  0  0  0
  -13.1414  -24.8261   26.7852 C   0  0  0  0  0  0  0  0  0  0  0  0
  -12.0631  -25.3510   27.4942 C   0  0  0  0  0  0  0  0  0  0  0  0
  -12.1934  -22.6358   25.6683 C   0  0  0  0  0  0  0  0  0  0  0  0
  -12.8541  -21.2710   25.4932 C   0  0  0  0  0  0  0  0  0  0  0  0
  -14.0334  -21.4566   24.5492 C   0  0  0  0  0  0  0  0  0  0  0  0
  -15.1800  -22.2808   25.1297 C   0  0  0  0  0  0  0  0  0  0  0  0
  -11.6442  -23.3413   28.2884 H   0  0  0  0  0  0  0  0  0  0  0  0
  -11.4538  -21.0974   28.0052 H   0  0  0  0  0  0  0  0  0  0  0  0
  -11.5025  -18.8865   28.9358 H   0  0  0  0  0  0  0  0  0  0  0  0
  -11.3454  -18.5493   31.4206 H   0  0  0  0  0  0  0  0  0  0  0  0
  -11.0601  -20.4372   32.8462 H   0  0  0  0  0  0  0  0  0  0  0  0
   -8.8452  -23.2960   30.4008 H   0  0  0  0  0  0  0  0  0  0  0  0
   -9.8158  -24.6768   30.9528 H   0  0  0  0  0  0  0  0  0  0  0  0
   -7.4294  -24.6595   31.8780 H   0  0  0  0  0  0  0  0  0  0  0  0
   -8.7918  -24.7876   32.9578 H   0  0  0  0  0  0  0  0  0  0  0  0
   -7.5529  -22.1292   32.0035 H   0  0  0  0  0  0  0  0  0  0  0  0
   -7.2538  -22.6946   33.6237 H   0  0  0  0  0  0  0  0  0  0  0  0
   -9.6811  -22.7184   34.0818 H   0  0  0  0  0  0  0  0  0  0  0  0
   -9.2893  -21.2026   33.2702 H   0  0  0  0  0  0  0  0  0  0  0  0
  -13.9414  -26.4039   30.1339 H   0  0  0  0  0  0  0  0  0  0  0  0
  -15.7286  -26.3829   28.4172 H   0  0  0  0  0  0  0  0  0  0  0  0
  -16.2977  -24.6016   26.3089 H   0  0  0  0  0  0  0  0  0  0  0  0
  -11.0733  -24.9897   27.2480 H   0  0  0  0  0  0  0  0  0  0  0  0
  -11.4210  -22.5893   26.4356 H   0  0  0  0  0  0  0  0  0  0  0  0
  -11.6656  -22.8706   24.7441 H   0  0  0  0  0  0  0  0  0  0  0  0
  -12.1437  -20.5589   25.0644 H   0  0  0  0  0  0  0  0  0  0  0  0
  -13.1815  -20.8757   26.4573 H   0  0  0  0  0  0  0  0  0  0  0  0
  -13.6199  -21.9656   23.6728 H   0  0  0  0  0  0  0  0  0  0  0  0
  -14.4387  -20.5167   24.2178 H   0  0  0  0  0  0  0  0  0  0  0  0
  -15.7503  -21.7390   25.8711 H   0  0  0  0  0  0  0  0  0  0  0  0
  -15.9406  -22.4604   24.3767 H   0  0  0  0  0  0  0  0  0  0  0  0
  1  2  2  0
  2  3  1  0
  3  4  1  0
  4  5  2  0
  5  6  1  0
  6  7  2  0
  7  8  1  0
  8  9  2  0
  9 10  1  0
 10 11  1  0
 11 12  1  0
 12 13  1  0
 13 14  1  0
  2 15  1  0
 15 16  2  0
 16 17  1  0
 17 18  2  0
 18 19  1  0
 19 20  1  0
 20 21  2  0
 21 22  1  0
 22 23  2  0
 21 24  1  0
 24 25  1  0
 25 26  1  0
 26 27  1  0
  9  4  1  0
 14 10  1  0
 23 15  1  0
 22 18  1  0
 27 20  1  0
  3 28  1  0
  5 29  1  0
  6 30  1  0
  7 31  1  0
  8 32  1  0
 11 33  1  0
 11 34  1  0
 12 35  1  0
 12 36  1  0
 13 37  1  0
 13 38  1  0
 14 39  1  0
 14 40  1  0
 16 41  1  0
 17 42  1  0
 19 43  1  0
 23 44  1  0
 24 45  1  0
 24 46  1  0
 25 47  1  0
 25 48  1  0
 26 49  1  0
 26 50  1  0
 27 51  1  0
 27 52  1  0
M  END
>  <Energy>  (33) 
144.46860523786128

>  <compound_id>  (33) 
51688

>  <target_id>  (33) 
1

>  <reference_id>  (33) 
3

>  <inspiration_ids>  (33) 
[3, 39]

>  <energy_score>  (33) 
29.59145501580366

>  <distance_score>  (33) 
3.5130205401870422

>  <path>  (33) 
/opt/xchem-fragalysis-2/maxwin/BulkDock/SCRATCH/511021/C51688-P3/C51688-P3.minimised.mol

>  <scratch_subdir>  (33) 
/opt/xchem-fragalysis-2/maxwin/BulkDock/SCRATCH/511021/C51688-P3

>  <fragmenstein_runtime>  (33) 
81.37775206565857

>  <fragmenstein_outcome>  (33) 
too moved

>  <fragmenstein_mode>  (33) 
expansion

>  <fragmenstein_error>  (33) 


$$$$
C51688-P39
     RDKit          3D

 52 56  0  0  0  0  0  0  0  0999 V2000
  -11.4659  -26.4847   29.0124 O   0  0  0  0  0  0  0  0  0  0  0  0
  -11.4789  -25.2885   29.0073 C   0  0  0  0  0  0  0  0  0  0  0  0
  -11.2145  -24.3327   30.0654 N   0  0  0  0  0  0  0  0  0  0  0  0
  -10.9668  -24.5122   31.3757 C   0  0  0  0  0  0  0  0  0  0  0  0
   -9.9427  -25.3566   31.7065 C   0  0  0  0  0  0  0  0  0  0  0  0
   -9.6676  -25.4604   33.0295 C   0  0  0  0  0  0  0  0  0  0  0  0
  -10.6545  -25.1352   33.9281 C   0  0  0  0  0  0  0  0  0  0  0  0
  -11.6506  -24.2530   33.5794 C   0  0  0  0  0  0  0  0  0  0  0  0
  -11.6632  -23.7319   32.3126 C   0  0  0  0  0  0  0  0  0  0  0  0
  -12.4340  -22.5775   31.9975 N   0  0  0  0  0  0  0  0  0  0  0  0
  -12.4768  -21.5930   33.1080 C   0  0  0  0  0  0  0  0  0  0  0  0
  -13.9436  -21.4291   33.4997 C   0  0  0  0  0  0  0  0  0  0  0  0
  -14.7065  -21.8855   32.2858 C   0  0  0  0  0  0  0  0  0  0  0  0
  -13.8187  -23.0066   31.7883 C   0  0  0  0  0  0  0  0  0  0  0  0
  -11.9161  -24.5653   27.7926 C   0  0  0  0  0  0  0  0  0  0  0  0
  -11.4922  -24.9103   26.5114 C   0  0  0  0  0  0  0  0  0  0  0  0
  -11.5067  -23.9341   25.4985 C   0  0  0  0  0  0  0  0  0  0  0  0
  -11.8679  -22.6425   25.8967 C   0  0  0  0  0  0  0  0  0  0  0  0
  -11.4331  -21.3178   25.8312 N   0  0  0  0  0  0  0  0  0  0  0  0
  -11.9858  -20.1069   25.3976 C   0  0  0  0  0  0  0  0  0  0  0  0
  -11.8849  -20.8848   27.1384 C   0  0  0  0  0  0  0  0  0  0  0  0
  -12.0407  -22.3640   27.2134 C   0  0  0  0  0  0  0  0  0  0  0  0
  -12.4854  -23.3316   28.0595 C   0  0  0  0  0  0  0  0  0  0  0  0
  -12.1076  -20.0206   28.7763 C   0  0  0  0  0  0  0  0  0  0  0  0
  -11.7891  -17.9633   28.5953 C   0  0  0  0  0  0  0  0  0  0  0  0
  -10.6796  -17.2152   26.9783 C   0  0  0  0  0  0  0  0  0  0  0  0
  -11.4651  -17.9468   25.1941 C   0  0  0  0  0  0  0  0  0  0  0  0
  -11.3967  -23.4113   29.7286 H   0  0  0  0  0  0  0  0  0  0  0  0
   -9.3136  -25.8227   30.9614 H   0  0  0  0  0  0  0  0  0  0  0  0
   -8.7246  -25.8756   33.3299 H   0  0  0  0  0  0  0  0  0  0  0  0
  -10.6027  -25.4209   34.9552 H   0  0  0  0  0  0  0  0  0  0  0  0
  -12.3467  -23.9167   34.3352 H   0  0  0  0  0  0  0  0  0  0  0  0
  -12.0202  -20.6692   32.7590 H   0  0  0  0  0  0  0  0  0  0  0  0
  -11.9306  -21.8630   34.0066 H   0  0  0  0  0  0  0  0  0  0  0  0
  -14.1946  -20.4153   33.8210 H   0  0  0  0  0  0  0  0  0  0  0  0
  -14.1798  -22.1042   34.3296 H   0  0  0  0  0  0  0  0  0  0  0  0
  -14.8155  -21.0975   31.5420 H   0  0  0  0  0  0  0  0  0  0  0  0
  -15.7136  -22.2317   32.5371 H   0  0  0  0  0  0  0  0  0  0  0  0
  -14.0280  -23.8780   32.4098 H   0  0  0  0  0  0  0  0  0  0  0  0
  -13.9838  -23.1984   30.7326 H   0  0  0  0  0  0  0  0  0  0  0  0
  -11.0492  -25.8857   26.3294 H   0  0  0  0  0  0  0  0  0  0  0  0
  -10.9868  -24.1035   24.5679 H   0  0  0  0  0  0  0  0  0  0  0  0
  -10.5427  -20.9554   26.1711 H   0  0  0  0  0  0  0  0  0  0  0  0
  -12.9525  -23.0731   28.9936 H   0  0  0  0  0  0  0  0  0  0  0  0
  -13.0373  -20.3995   29.1443 H   0  0  0  0  0  0  0  0  0  0  0  0
  -11.3259  -20.5643   29.3710 H   0  0  0  0  0  0  0  0  0  0  0  0
  -10.9997  -17.8268   29.2575 H   0  0  0  0  0  0  0  0  0  0  0  0
  -12.3511  -17.3071   29.2840 H   0  0  0  0  0  0  0  0  0  0  0  0
  -10.5865  -16.0958   26.9645 H   0  0  0  0  0  0  0  0  0  0  0  0
   -9.6058  -17.4817   26.9422 H   0  0  0  0  0  0  0  0  0  0  0  0
  -12.3157  -17.3275   24.7476 H   0  0  0  0  0  0  0  0  0  0  0  0
  -10.6054  -17.6109   24.5682 H   0  0  0  0  0  0  0  0  0  0  0  0
  1  2  2  0
  2  3  1  0
  3  4  1  0
  4  5  2  0
  5  6  1  0
  6  7  2  0
  7  8  1  0
  8  9  2  0
  9 10  1  0
 10 11  1  0
 11 12  1  0
 12 13  1  0
 13 14  1  0
  2 15  1  0
 15 16  2  0
 16 17  1  0
 17 18  2  0
 18 19  1  0
 19 20  1  0
 20 21  2  0
 21 22  1  0
 22 23  2  0
 21 24  1  0
 24 25  1  0
 25 26  1  0
 26 27  1  0
  9  4  1  0
 14 10  1  0
 23 15  1  0
 22 18  1  0
 27 20  1  0
  3 28  1  0
  5 29  1  0
  6 30  1  0
  7 31  1  0
  8 32  1  0
 11 33  1  0
 11 34  1  0
 12 35  1  0
 12 36  1  0
 13 37  1  0
 13 38  1  0
 14 39  1  0
 14 40  1  0
 16 41  1  0
 17 42  1  0
 19 43  1  0
 23 44  1  0
 24 45  1  0
 24 46  1  0
 25 47  1  0
 25 48  1  0
 26 49  1  0
 26 50  1  0
 27 51  1  0
 27 52  1  0
M  END
>  <Energy>  (34) 
793.04860982541061

>  <compound_id>  (34) 
51688

>  <target_id>  (34) 
1

>  <reference_id>  (34) 
39

>  <inspiration_ids>  (34) 
[3, 39]

>  <energy_score>  (34) 
678.1714596033477

>  <distance_score>  (34) 
3.224728500777096

>  <path>  (34) 
/opt/xchem-fragalysis-2/maxwin/BulkDock/SCRATCH/511021/C51688-P39/C51688-P39.minimised.mol

>  <scratch_subdir>  (34) 
/opt/xchem-fragalysis-2/maxwin/BulkDock/SCRATCH/511021/C51688-P39

>  <fragmenstein_runtime>  (34) 
80.16703820228577

>  <fragmenstein_outcome>  (34) 
too moved

>  <fragmenstein_mode>  (34) 
expansion

>  <fragmenstein_error>  (34) 


$$$$
C51694-P3
     RDKit          3D

 50 53  0  0  0  0  0  0  0  0999 V2000
   -8.5142  -22.3914   30.6395 O   0  0  0  0  0  0  0  0  0  0  0  0
   -9.6816  -22.6098   30.5504 C   0  0  0  0  0  0  0  0  0  0  0  0
  -10.7071  -21.8949   29.8998 N   0  0  0  0  0  0  0  0  0  0  0  0
  -10.6601  -20.7396   29.0655 C   0  0  0  0  0  0  0  0  0  0  0  0
  -11.6897  -20.7319   27.9697 C   0  0  0  0  0  0  0  0  0  0  0  0
  -12.3953  -22.0576   27.7038 C   0  0  0  0  0  0  0  0  0  0  0  0
  -12.2805  -23.0106   28.4111 O   0  0  0  0  0  0  0  0  0  0  0  0
  -13.1990  -21.8527   26.5979 N   0  0  0  0  0  0  0  0  0  0  0  0
  -14.2518  -22.6973   25.9966 C   0  0  0  0  0  0  0  0  0  0  0  0
  -14.6585  -21.9733   24.7727 C   0  0  0  0  0  0  0  0  0  0  0  0
  -13.3036  -21.8817   24.1606 C   0  0  0  0  0  0  0  0  0  0  0  0
  -12.4793  -22.2500   25.3552 C   0  0  0  0  0  0  0  0  0  0  0  0
  -10.1721  -23.8729   31.1155 C   0  0  0  0  0  0  0  0  0  0  0  0
   -9.6094  -24.2436   32.3059 C   0  0  0  0  0  0  0  0  0  0  0  0
  -10.1087  -25.3628   32.9385 C   0  0  0  0  0  0  0  0  0  0  0  0
  -11.2521  -26.0329   32.4405 C   0  0  0  0  0  0  0  0  0  0  0  0
  -11.9373  -27.1302   32.9127 N   0  0  0  0  0  0  0  0  0  0  0  0
  -12.9529  -27.4213   32.0482 C   0  0  0  0  0  0  0  0  0  0  0  0
  -12.8440  -26.5975   30.9462 C   0  0  0  0  0  0  0  0  0  0  0  0
  -11.7678  -25.7160   31.1903 C   0  0  0  0  0  0  0  0  0  0  0  0
  -11.1453  -24.6776   30.4888 C   0  0  0  0  0  0  0  0  0  0  0  0
  -13.7728  -26.6766   29.7855 C   0  0  0  0  0  0  0  0  0  0  0  0
  -14.5745  -27.9930   29.8103 C   0  0  0  0  0  0  0  0  0  0  0  0
  -15.0981  -28.3304   31.2205 C   0  0  0  0  0  0  0  0  0  0  0  0
  -13.9570  -28.4967   32.2427 C   0  0  0  0  0  0  0  0  0  0  0  0
  -11.5945  -22.3335   30.1050 H   0  0  0  0  0  0  0  0  0  0  0  0
   -9.6788  -20.7349   28.5953 H   0  0  0  0  0  0  0  0  0  0  0  0
  -10.7710  -19.8497   29.6928 H   0  0  0  0  0  0  0  0  0  0  0  0
  -11.2449  -20.3500   27.0559 H   0  0  0  0  0  0  0  0  0  0  0  0
  -12.4424  -19.9838   28.2174 H   0  0  0  0  0  0  0  0  0  0  0  0
  -14.0019  -23.7688   25.8946 H   0  0  0  0  0  0  0  0  0  0  0  0
  -15.0810  -22.7186   26.7140 H   0  0  0  0  0  0  0  0  0  0  0  0
  -15.4610  -22.4544   24.2494 H   0  0  0  0  0  0  0  0  0  0  0  0
  -15.0497  -20.9882   24.9968 H   0  0  0  0  0  0  0  0  0  0  0  0
  -13.0539  -20.8707   23.8517 H   0  0  0  0  0  0  0  0  0  0  0  0
  -13.1267  -22.5633   23.3334 H   0  0  0  0  0  0  0  0  0  0  0  0
  -12.1225  -23.2867   25.4169 H   0  0  0  0  0  0  0  0  0  0  0  0
  -11.5465  -21.6846   25.3069 H   0  0  0  0  0  0  0  0  0  0  0  0
   -8.7639  -23.7019   32.7201 H   0  0  0  0  0  0  0  0  0  0  0  0
   -9.5285  -25.7578   33.7610 H   0  0  0  0  0  0  0  0  0  0  0  0
  -11.6973  -27.6360   33.7571 H   0  0  0  0  0  0  0  0  0  0  0  0
  -11.4372  -24.5143   29.4691 H   0  0  0  0  0  0  0  0  0  0  0  0
  -13.2208  -26.6006   28.8420 H   0  0  0  0  0  0  0  0  0  0  0  0
  -14.4666  -25.8282   29.8308 H   0  0  0  0  0  0  0  0  0  0  0  0
  -15.4123  -27.9223   29.1076 H   0  0  0  0  0  0  0  0  0  0  0  0
  -13.9349  -28.8154   29.4643 H   0  0  0  0  0  0  0  0  0  0  0  0
  -15.6945  -29.2492   31.1880 H   0  0  0  0  0  0  0  0  0  0  0  0
  -15.7682  -27.5258   31.5502 H   0  0  0  0  0  0  0  0  0  0  0  0
  -13.4748  -29.4699   32.0938 H   0  0  0  0  0  0  0  0  0  0  0  0
  -14.3630  -28.4771   33.2598 H   0  0  0  0  0  0  0  0  0  0  0  0
  1  2  2  0
  2  3  1  0
  3  4  1  0
  4  5  1  0
  5  6  1  0
  6  7  2  0
  6  8  1  0
  8  9  1  0
  9 10  1  0
 10 11  1  0
 11 12  1  0
  2 13  1  0
 13 14  2  0
 14 15  1  0
 15 16  2  0
 16 17  1  0
 17 18  1  0
 18 19  2  0
 19 20  1  0
 20 21  2  0
 19 22  1  0
 22 23  1  0
 23 24  1  0
 24 25  1  0
 12  8  1  0
 21 13  1  0
 20 16  1  0
 25 18  1  0
  3 26  1  0
  4 27  1  0
  4 28  1  0
  5 29  1  0
  5 30  1  0
  9 31  1  0
  9 32  1  0
 10 33  1  0
 10 34  1  0
 11 35  1  0
 11 36  1  0
 12 37  1  0
 12 38  1  0
 14 39  1  0
 15 40  1  0
 17 41  1  0
 21 42  1  0
 22 43  1  0
 22 44  1  0
 23 45  1  0
 23 46  1  0
 24 47  1  0
 24 48  1  0
 25 49  1  0
 25 50  1  0
M  END
>  <Energy>  (35) 
91.236014026985671

>  <compound_id>  (35) 
51694

>  <target_id>  (35) 
1

>  <reference_id>  (35) 
3

>  <inspiration_ids>  (35) 
[3, 39]

>  <energy_score>  (35) 
67.86328024832804

>  <distance_score>  (35) 
2.9323169465037497

>  <path>  (35) 
/opt/xchem-fragalysis-2/maxwin/BulkDock/SCRATCH/511021/C51694-P3/C51694-P3.minimised.mol

>  <scratch_subdir>  (35) 
/opt/xchem-fragalysis-2/maxwin/BulkDock/SCRATCH/511021/C51694-P3

>  <fragmenstein_runtime>  (35) 
14.752202033996582

>  <fragmenstein_outcome>  (35) 
too moved

>  <fragmenstein_mode>  (35) 
expansion

>  <fragmenstein_error>  (35) 


$$$$
C51694-P39
     RDKit          3D

 50 53  0  0  0  0  0  0  0  0999 V2000
  -14.2007  -21.9068   31.0384 O   0  0  0  0  0  0  0  0  0  0  0  0
  -13.0026  -21.9323   31.0195 C   0  0  0  0  0  0  0  0  0  0  0  0
  -12.0866  -22.4073   30.0114 N   0  0  0  0  0  0  0  0  0  0  0  0
  -12.3228  -23.0797   28.7712 C   0  0  0  0  0  0  0  0  0  0  0  0
  -13.3849  -24.1147   29.0561 C   0  0  0  0  0  0  0  0  0  0  0  0
  -13.8887  -24.9639   27.9282 C   0  0  0  0  0  0  0  0  0  0  0  0
  -14.9965  -25.4226   27.9341 O   0  0  0  0  0  0  0  0  0  0  0  0
  -12.8656  -25.1143   27.0297 N   0  0  0  0  0  0  0  0  0  0  0  0
  -12.8183  -25.7900   25.7343 C   0  0  0  0  0  0  0  0  0  0  0  0
  -11.3898  -25.9647   25.3225 C   0  0  0  0  0  0  0  0  0  0  0  0
  -10.7631  -26.1668   26.6439 C   0  0  0  0  0  0  0  0  0  0  0  0
  -12.0127  -26.2613   27.4158 C   0  0  0  0  0  0  0  0  0  0  0  0
  -12.3298  -21.4752   32.3347 C   0  0  0  0  0  0  0  0  0  0  0  0
  -13.2094  -21.6463   33.4041 C   0  0  0  0  0  0  0  0  0  0  0  0
  -13.3133  -22.9332   33.9010 C   0  0  0  0  0  0  0  0  0  0  0  0
  -12.4011  -23.7872   33.2961 C   0  0  0  0  0  0  0  0  0  0  0  0
  -12.6510  -24.9196   32.6019 N   0  0  0  0  0  0  0  0  0  0  0  0
  -11.5221  -25.4226   32.0361 C   0  0  0  0  0  0  0  0  0  0  0  0
  -10.5105  -24.5777   32.4021 C   0  0  0  0  0  0  0  0  0  0  0  0
  -11.1918  -23.3956   32.7459 C   0  0  0  0  0  0  0  0  0  0  0  0
  -11.0814  -22.0425   32.4639 C   0  0  0  0  0  0  0  0  0  0  0  0
   -9.1853  -24.9113   31.8992 C   0  0  0  0  0  0  0  0  0  0  0  0
   -9.4093  -25.3059   30.4287 C   0  0  0  0  0  0  0  0  0  0  0  0
  -10.0869  -26.6598   30.4237 C   0  0  0  0  0  0  0  0  0  0  0  0
  -11.4291  -26.6183   31.1349 C   0  0  0  0  0  0  0  0  0  0  0  0
  -11.1547  -22.3498   30.3643 H   0  0  0  0  0  0  0  0  0  0  0  0
  -11.3764  -23.5324   28.4650 H   0  0  0  0  0  0  0  0  0  0  0  0
  -12.5827  -22.3634   28.0056 H   0  0  0  0  0  0  0  0  0  0  0  0
  -14.2535  -23.6003   29.4365 H   0  0  0  0  0  0  0  0  0  0  0  0
  -13.0355  -24.7709   29.8445 H   0  0  0  0  0  0  0  0  0  0  0  0
  -13.4710  -26.6720   25.6969 H   0  0  0  0  0  0  0  0  0  0  0  0
  -13.3334  -25.0996   25.0577 H   0  0  0  0  0  0  0  0  0  0  0  0
  -11.2941  -26.8474   24.7012 H   0  0  0  0  0  0  0  0  0  0  0  0
  -10.9729  -25.0738   24.8505 H   0  0  0  0  0  0  0  0  0  0  0  0
  -10.1278  -27.0406   26.6900 H   0  0  0  0  0  0  0  0  0  0  0  0
  -10.2026  -25.2861   26.9773 H   0  0  0  0  0  0  0  0  0  0  0  0
  -12.5305  -27.2322   27.4489 H   0  0  0  0  0  0  0  0  0  0  0  0
  -11.7555  -26.0921   28.4568 H   0  0  0  0  0  0  0  0  0  0  0  0
  -14.0894  -21.0129   33.5010 H   0  0  0  0  0  0  0  0  0  0  0  0
  -14.2355  -23.2814   34.3523 H   0  0  0  0  0  0  0  0  0  0  0  0
  -13.5815  -25.2690   32.4818 H   0  0  0  0  0  0  0  0  0  0  0  0
  -10.2606  -21.6080   31.9223 H   0  0  0  0  0  0  0  0  0  0  0  0
   -8.7597  -25.7495   32.4556 H   0  0  0  0  0  0  0  0  0  0  0  0
   -8.5147  -24.0997   32.1153 H   0  0  0  0  0  0  0  0  0  0  0  0
  -10.0673  -24.6125   29.8985 H   0  0  0  0  0  0  0  0  0  0  0  0
   -8.5060  -25.3218   29.8418 H   0  0  0  0  0  0  0  0  0  0  0  0
   -9.4503  -27.3820   30.9425 H   0  0  0  0  0  0  0  0  0  0  0  0
  -10.1970  -27.0135   29.4024 H   0  0  0  0  0  0  0  0  0  0  0  0
  -11.5244  -27.5742   31.6477 H   0  0  0  0  0  0  0  0  0  0  0  0
  -12.2364  -26.6047   30.4081 H   0  0  0  0  0  0  0  0  0  0  0  0
  1  2  2  0
  2  3  1  0
  3  4  1  0
  4  5  1  0
  5  6  1  0
  6  7  2  0
  6  8  1  0
  8  9  1  0
  9 10  1  0
 10 11  1  0
 11 12  1  0
  2 13  1  0
 13 14  2  0
 14 15  1  0
 15 16  2  0
 16 17  1  0
 17 18  1  0
 18 19  2  0
 19 20  1  0
 20 21  2  0
 19 22  1  0
 22 23  1  0
 23 24  1  0
 24 25  1  0
 12  8  1  0
 21 13  1  0
 20 16  1  0
 25 18  1  0
  3 26  1  0
  4 27  1  0
  4 28  1  0
  5 29  1  0
  5 30  1  0
  9 31  1  0
  9 32  1  0
 10 33  1  0
 10 34  1  0
 11 35  1  0
 11 36  1  0
 12 37  1  0
 12 38  1  0
 14 39  1  0
 15 40  1  0
 17 41  1  0
 21 42  1  0
 22 43  1  0
 22 44  1  0
 23 45  1  0
 23 46  1  0
 24 47  1  0
 24 48  1  0
 25 49  1  0
 25 50  1  0
M  END
>  <Energy>  (36) 
189.78323020747823

>  <compound_id>  (36) 
51694

>  <target_id>  (36) 
1

>  <reference_id>  (36) 
39

>  <inspiration_ids>  (36) 
[3, 39]

>  <energy_score>  (36) 
166.41049642881882

>  <distance_score>  (36) 
3.3518764090656155

>  <path>  (36) 
/opt/xchem-fragalysis-2/maxwin/BulkDock/SCRATCH/511021/C51694-P39/C51694-P39.minimised.mol

>  <scratch_subdir>  (36) 
/opt/xchem-fragalysis-2/maxwin/BulkDock/SCRATCH/511021/C51694-P39

>  <fragmenstein_runtime>  (36) 
15.351153135299683

>  <fragmenstein_outcome>  (36) 
too moved

>  <fragmenstein_mode>  (36) 
expansion

>  <fragmenstein_error>  (36) 


$$$$
C51695-P3
     RDKit          3D

 40 43  0  0  0  0  0  0  0  0999 V2000
   -9.8266  -19.8721   28.2880 O   0  0  0  0  0  0  0  0  0  0  0  0
  -10.8511  -20.3998   28.5831 C   0  0  0  0  0  0  0  0  0  0  0  0
  -11.4034  -19.9286   29.8958 C   0  0  0  0  0  0  0  0  0  0  0  0
  -10.6847  -19.3094   30.9227 C   0  0  0  0  0  0  0  0  0  0  0  0
  -10.1863  -20.0919   32.0355 C   0  0  0  0  0  0  0  0  0  0  0  0
  -10.2879  -21.4673   31.8496 C   0  0  0  0  0  0  0  0  0  0  0  0
   -9.7231  -22.5860   32.3749 N   0  0  0  0  0  0  0  0  0  0  0  0
  -10.2583  -23.6427   31.6894 C   0  0  0  0  0  0  0  0  0  0  0  0
  -10.9623  -23.2531   30.5915 C   0  0  0  0  0  0  0  0  0  0  0  0
  -11.1296  -21.9022   30.8421 C   0  0  0  0  0  0  0  0  0  0  0  0
  -12.0502  -20.9475   30.4682 C   0  0  0  0  0  0  0  0  0  0  0  0
  -11.6498  -24.1639   29.6348 C   0  0  0  0  0  0  0  0  0  0  0  0
  -11.7007  -25.6213   30.0881 C   0  0  0  0  0  0  0  0  0  0  0  0
  -11.4703  -25.7937   31.5850 C   0  0  0  0  0  0  0  0  0  0  0  0
  -10.1941  -25.0280   32.0891 C   0  0  0  0  0  0  0  0  0  0  0  0
  -11.5774  -21.4754   27.9347 N   0  0  0  0  0  0  0  0  0  0  0  0
  -11.2161  -22.3292   26.7626 C   0  0  0  0  0  0  0  0  0  0  0  0
  -12.4148  -23.1048   26.2948 C   0  0  0  0  0  0  0  0  0  0  0  0
  -13.4213  -22.0246   26.3769 C   0  0  0  0  0  0  0  0  0  0  0  0
  -12.5475  -20.9265   26.9522 C   0  0  0  0  0  0  0  0  0  0  0  0
  -10.3153  -18.3012   30.8035 H   0  0  0  0  0  0  0  0  0  0  0  0
   -9.5122  -19.7151   32.7707 H   0  0  0  0  0  0  0  0  0  0  0  0
   -9.0883  -22.6401   33.1636 H   0  0  0  0  0  0  0  0  0  0  0  0
  -12.6051  -20.5469   31.3334 H   0  0  0  0  0  0  0  0  0  0  0  0
  -11.1343  -24.1452   28.6811 H   0  0  0  0  0  0  0  0  0  0  0  0
  -12.6675  -23.8245   29.4284 H   0  0  0  0  0  0  0  0  0  0  0  0
  -10.9555  -26.1966   29.5344 H   0  0  0  0  0  0  0  0  0  0  0  0
  -12.6666  -26.0585   29.8066 H   0  0  0  0  0  0  0  0  0  0  0  0
  -11.4733  -26.8570   31.8376 H   0  0  0  0  0  0  0  0  0  0  0  0
  -12.3770  -25.4560   32.0803 H   0  0  0  0  0  0  0  0  0  0  0  0
  -10.0243  -25.1756   33.1539 H   0  0  0  0  0  0  0  0  0  0  0  0
   -9.2902  -25.2506   31.5529 H   0  0  0  0  0  0  0  0  0  0  0  0
  -10.4418  -23.0071   27.1116 H   0  0  0  0  0  0  0  0  0  0  0  0
  -10.7599  -21.8664   25.9041 H   0  0  0  0  0  0  0  0  0  0  0  0
  -12.6630  -23.9591   26.9287 H   0  0  0  0  0  0  0  0  0  0  0  0
  -12.2978  -23.4264   25.2754 H   0  0  0  0  0  0  0  0  0  0  0  0
  -13.8525  -21.7445   25.4113 H   0  0  0  0  0  0  0  0  0  0  0  0
  -14.2218  -22.3675   27.0315 H   0  0  0  0  0  0  0  0  0  0  0  0
  -13.1238  -20.1872   27.4845 H   0  0  0  0  0  0  0  0  0  0  0  0
  -12.0625  -20.3183   26.1707 H   0  0  0  0  0  0  0  0  0  0  0  0
  1  2  2  0
  2  3  1  0
  3  4  2  0
  4  5  1  0
  5  6  2  0
  6  7  1  0
  7  8  1  0
  8  9  2  0
  9 10  1  0
 10 11  2  0
  9 12  1  0
 12 13  1  0
 13 14  1  0
 14 15  1  0
  2 16  1  0
 16 17  1  0
 17 18  1  0
 18 19  1  0
 19 20  1  0
 11  3  1  0
 20 16  1  0
 10  6  1  0
 15  8  1  0
  4 21  1  0
  5 22  1  0
  7 23  1  0
 11 24  1  0
 12 25  1  0
 12 26  1  0
 13 27  1  0
 13 28  1  0
 14 29  1  0
 14 30  1  0
 15 31  1  0
 15 32  1  0
 17 33  1  0
 17 34  1  0
 18 35  1  0
 18 36  1  0
 19 37  1  0
 19 38  1  0
 20 39  1  0
 20 40  1  0
M  END
>  <Energy>  (37) 
204.9300215326785

>  <compound_id>  (37) 
51695

>  <target_id>  (37) 
1

>  <reference_id>  (37) 
3

>  <inspiration_ids>  (37) 
[3, 39]

>  <energy_score>  (37) 
125.30787725950051

>  <distance_score>  (37) 
2.5574663175159036

>  <path>  (37) 
/opt/xchem-fragalysis-2/maxwin/BulkDock/SCRATCH/511021/C51695-P3/C51695-P3.minimised.mol

>  <scratch_subdir>  (37) 
/opt/xchem-fragalysis-2/maxwin/BulkDock/SCRATCH/511021/C51695-P3

>  <fragmenstein_runtime>  (37) 
12.167939901351929

>  <fragmenstein_outcome>  (37) 
too moved

>  <fragmenstein_mode>  (37) 
expansion

>  <fragmenstein_error>  (37) 


$$$$
C51695-P39
     RDKit          3D

 40 43  0  0  0  0  0  0  0  0999 V2000
  -11.5393  -26.4015   31.3668 O   0  0  0  0  0  0  0  0  0  0  0  0
  -11.8645  -25.4861   30.6770 C   0  0  0  0  0  0  0  0  0  0  0  0
  -12.1982  -23.9431   31.3601 C   0  0  0  0  0  0  0  0  0  0  0  0
  -12.4872  -23.0813   30.0379 C   0  0  0  0  0  0  0  0  0  0  0  0
  -12.1590  -21.6765   29.9702 C   0  0  0  0  0  0  0  0  0  0  0  0
  -11.6353  -21.0159   31.3894 C   0  0  0  0  0  0  0  0  0  0  0  0
  -10.3392  -21.0888   31.7001 N   0  0  0  0  0  0  0  0  0  0  0  0
  -10.7740  -22.3800   31.7511 C   0  0  0  0  0  0  0  0  0  0  0  0
  -12.6130  -22.0242   32.0927 C   0  0  0  0  0  0  0  0  0  0  0  0
  -11.8137  -21.5966   32.9031 C   0  0  0  0  0  0  0  0  0  0  0  0
  -11.9137  -23.0850   33.0551 C   0  0  0  0  0  0  0  0  0  0  0  0
  -13.9001  -23.1617   32.9076 C   0  0  0  0  0  0  0  0  0  0  0  0
  -13.0338  -24.7540   33.4711 C   0  0  0  0  0  0  0  0  0  0  0  0
  -11.1248  -25.0324   33.4706 C   0  0  0  0  0  0  0  0  0  0  0  0
   -9.9941  -23.9226   32.4710 C   0  0  0  0  0  0  0  0  0  0  0  0
  -12.0645  -25.4216   29.2566 N   0  0  0  0  0  0  0  0  0  0  0  0
  -12.0372  -26.4951   28.2153 C   0  0  0  0  0  0  0  0  0  0  0  0
  -11.9528  -25.8884   26.8232 C   0  0  0  0  0  0  0  0  0  0  0  0
  -11.1224  -24.6904   27.1289 C   0  0  0  0  0  0  0  0  0  0  0  0
  -10.7786  -25.0285   28.5595 C   0  0  0  0  0  0  0  0  0  0  0  0
  -12.8739  -23.5184   29.1293 H   0  0  0  0  0  0  0  0  0  0  0  0
  -12.0362  -21.1044   29.0629 H   0  0  0  0  0  0  0  0  0  0  0  0
   -9.7622  -20.5631   32.3503 H   0  0  0  0  0  0  0  0  0  0  0  0
  -11.7417  -23.3085   34.1080 H   0  0  0  0  0  0  0  0  0  0  0  0
  -14.2266  -22.6178   33.8088 H   0  0  0  0  0  0  0  0  0  0  0  0
  -14.6976  -23.2510   32.1935 H   0  0  0  0  0  0  0  0  0  0  0  0
  -13.4962  -25.0657   34.4016 H   0  0  0  0  0  0  0  0  0  0  0  0
  -13.2710  -25.3530   32.6325 H   0  0  0  0  0  0  0  0  0  0  0  0
  -10.7962  -26.0538   33.2829 H   0  0  0  0  0  0  0  0  0  0  0  0
  -10.8538  -24.9651   34.5296 H   0  0  0  0  0  0  0  0  0  0  0  0
   -9.1736  -23.5889   33.1062 H   0  0  0  0  0  0  0  0  0  0  0  0
   -9.6161  -24.5044   31.6233 H   0  0  0  0  0  0  0  0  0  0  0  0
  -12.9856  -27.0362   28.3053 H   0  0  0  0  0  0  0  0  0  0  0  0
  -11.2848  -27.2630   28.4364 H   0  0  0  0  0  0  0  0  0  0  0  0
  -12.9362  -25.6031   26.4359 H   0  0  0  0  0  0  0  0  0  0  0  0
  -11.4722  -26.5645   26.1121 H   0  0  0  0  0  0  0  0  0  0  0  0
  -10.2517  -24.5632   26.4939 H   0  0  0  0  0  0  0  0  0  0  0  0
  -11.7208  -23.7750   27.0616 H   0  0  0  0  0  0  0  0  0  0  0  0
  -10.3834  -24.1311   29.0353 H   0  0  0  0  0  0  0  0  0  0  0  0
   -9.9631  -25.7615   28.6943 H   0  0  0  0  0  0  0  0  0  0  0  0
  1  2  2  0
  2  3  1  0
  3  4  2  0
  4  5  1  0
  5  6  2  0
  6  7  1  0
  7  8  1  0
  8  9  2  0
  9 10  1  0
 10 11  2  0
  9 12  1  0
 12 13  1  0
 13 14  1  0
 14 15  1  0
  2 16  1  0
 16 17  1  0
 17 18  1  0
 18 19  1  0
 19 20  1  0
 11  3  1  0
 20 16  1  0
 10  6  1  0
 15  8  1  0
  4 21  1  0
  5 22  1  0
  7 23  1  0
 11 24  1  0
 12 25  1  0
 12 26  1  0
 13 27  1  0
 13 28  1  0
 14 29  1  0
 14 30  1  0
 15 31  1  0
 15 32  1  0
 17 33  1  0
 17 34  1  0
 18 35  1  0
 18 36  1  0
 19 37  1  0
 19 38  1  0
 20 39  1  0
 20 40  1  0
M  END
>  <Energy>  (38) 
1294.1250153461001

>  <compound_id>  (38) 
51695

>  <target_id>  (38) 
1

>  <reference_id>  (38) 
39

>  <inspiration_ids>  (38) 
[3, 39]

>  <energy_score>  (38) 
1214.5028710729148

>  <distance_score>  (38) 
2.935515586213138

>  <path>  (38) 
/opt/xchem-fragalysis-2/maxwin/BulkDock/SCRATCH/511021/C51695-P39/C51695-P39.minimised.mol

>  <scratch_subdir>  (38) 
/opt/xchem-fragalysis-2/maxwin/BulkDock/SCRATCH/511021/C51695-P39

>  <fragmenstein_runtime>  (38) 
13.296666622161865

>  <fragmenstein_outcome>  (38) 
too moved

>  <fragmenstein_mode>  (38) 
expansion

>  <fragmenstein_error>  (38) 


$$$$
C51696-P3
     RDKit          3D

 43 46  0  0  0  0  0  0  0  0999 V2000
  -11.3909  -25.1032   26.1475 O   0  0  0  0  0  0  0  0  0  0  0  0
  -12.1186  -24.4044   26.7422 C   0  0  0  0  0  0  0  0  0  0  0  0
  -11.6325  -23.3956   27.6952 C   0  0  0  0  0  0  0  0  0  0  0  0
  -11.5272  -22.0481   27.3512 C   0  0  0  0  0  0  0  0  0  0  0  0
  -11.3456  -21.0634   28.3160 C   0  0  0  0  0  0  0  0  0  0  0  0
  -11.2245  -21.5049   29.6160 C   0  0  0  0  0  0  0  0  0  0  0  0
  -11.2158  -20.7965   30.7818 N   0  0  0  0  0  0  0  0  0  0  0  0
  -10.8165  -21.6261   31.7769 C   0  0  0  0  0  0  0  0  0  0  0  0
  -10.6334  -22.8861   31.2384 C   0  0  0  0  0  0  0  0  0  0  0  0
  -11.1420  -22.8485   29.9367 C   0  0  0  0  0  0  0  0  0  0  0  0
  -11.4129  -23.8287   28.9869 C   0  0  0  0  0  0  0  0  0  0  0  0
   -9.8334  -24.0196   31.7563 C   0  0  0  0  0  0  0  0  0  0  0  0
   -8.4490  -23.5208   32.0546 C   0  0  0  0  0  0  0  0  0  0  0  0
   -8.4469  -22.5872   33.2593 C   0  0  0  0  0  0  0  0  0  0  0  0
   -8.9127  -21.1826   33.0309 C   0  0  0  0  0  0  0  0  0  0  0  0
  -10.4071  -21.0544   33.0563 C   0  0  0  0  0  0  0  0  0  0  0  0
  -13.6131  -24.3362   26.7406 N   0  0  0  0  0  0  0  0  0  0  0  0
  -14.6255  -25.1984   26.0630 C   0  0  0  0  0  0  0  0  0  0  0  0
  -15.9881  -24.5630   26.0662 C   0  0  0  0  0  0  0  0  0  0  0  0
  -15.5870  -23.1467   25.8868 C   0  0  0  0  0  0  0  0  0  0  0  0
  -14.1159  -23.3713   25.6958 C   0  0  0  0  0  0  0  0  0  0  0  0
  -11.6509  -21.7466   26.3145 H   0  0  0  0  0  0  0  0  0  0  0  0
  -11.3576  -20.0093   28.0613 H   0  0  0  0  0  0  0  0  0  0  0  0
  -11.3548  -19.7951   30.8592 H   0  0  0  0  0  0  0  0  0  0  0  0
  -11.4331  -24.8834   29.2375 H   0  0  0  0  0  0  0  0  0  0  0  0
  -10.2311  -24.5266   32.6295 H   0  0  0  0  0  0  0  0  0  0  0  0
   -9.7626  -24.7862   30.9818 H   0  0  0  0  0  0  0  0  0  0  0  0
   -7.8122  -24.3821   32.2674 H   0  0  0  0  0  0  0  0  0  0  0  0
   -8.0237  -23.0058   31.1869 H   0  0  0  0  0  0  0  0  0  0  0  0
   -7.4111  -22.5171   33.6031 H   0  0  0  0  0  0  0  0  0  0  0  0
   -9.0793  -22.9736   34.0616 H   0  0  0  0  0  0  0  0  0  0  0  0
   -8.4911  -20.5445   33.7863 H   0  0  0  0  0  0  0  0  0  0  0  0
   -8.4873  -20.8542   32.1012 H   0  0  0  0  0  0  0  0  0  0  0  0
  -10.8468  -21.5692   33.9117 H   0  0  0  0  0  0  0  0  0  0  0  0
  -10.7024  -20.0024   33.1310 H   0  0  0  0  0  0  0  0  0  0  0  0
  -14.2799  -25.5598   25.0796 H   0  0  0  0  0  0  0  0  0  0  0  0
  -14.6621  -26.1171   26.6643 H   0  0  0  0  0  0  0  0  0  0  0  0
  -16.5046  -24.7097   27.0212 H   0  0  0  0  0  0  0  0  0  0  0  0
  -16.6275  -24.9527   25.2697 H   0  0  0  0  0  0  0  0  0  0  0  0
  -16.0710  -22.6266   25.0582 H   0  0  0  0  0  0  0  0  0  0  0  0
  -15.8061  -22.6090   26.8093 H   0  0  0  0  0  0  0  0  0  0  0  0
  -13.6368  -22.4055   25.8762 H   0  0  0  0  0  0  0  0  0  0  0  0
  -13.7882  -23.6205   24.6770 H   0  0  0  0  0  0  0  0  0  0  0  0
  1  2  2  0
  2  3  1  0
  3  4  2  0
  4  5  1  0
  5  6  2  0
  6  7  1  0
  7  8  1  0
  8  9  2  0
  9 10  1  0
 10 11  2  0
  9 12  1  0
 12 13  1  0
 13 14  1  0
 14 15  1  0
 15 16  1  0
  2 17  1  0
 17 18  1  0
 18 19  1  0
 19 20  1  0
 20 21  1  0
 11  3  1  0
 21 17  1  0
 10  6  1  0
 16  8  1  0
  4 22  1  0
  5 23  1  0
  7 24  1  0
 11 25  1  0
 12 26  1  0
 12 27  1  0
 13 28  1  0
 13 29  1  0
 14 30  1  0
 14 31  1  0
 15 32  1  0
 15 33  1  0
 16 34  1  0
 16 35  1  0
 18 36  1  0
 18 37  1  0
 19 38  1  0
 19 39  1  0
 20 40  1  0
 20 41  1  0
 21 42  1  0
 21 43  1  0
M  END
>  <Energy>  (39) 
121.77129237428471

>  <compound_id>  (39) 
51696

>  <target_id>  (39) 
1

>  <reference_id>  (39) 
3

>  <inspiration_ids>  (39) 
[3, 39]

>  <energy_score>  (39) 
69.18042160770679

>  <distance_score>  (39) 
3.6127589126604867

>  <path>  (39) 
/opt/xchem-fragalysis-2/maxwin/BulkDock/SCRATCH/511021/C51696-P3/C51696-P3.minimised.mol

>  <scratch_subdir>  (39) 
/opt/xchem-fragalysis-2/maxwin/BulkDock/SCRATCH/511021/C51696-P3

>  <fragmenstein_runtime>  (39) 
14.202054023742676

>  <fragmenstein_outcome>  (39) 
too moved

>  <fragmenstein_mode>  (39) 
expansion

>  <fragmenstein_error>  (39) 


$$$$
C51696-P39
     RDKit          3D

 43 46  0  0  0  0  0  0  0  0999 V2000
  -13.8640  -25.4603   28.1771 O   0  0  0  0  0  0  0  0  0  0  0  0
  -13.3443  -24.4854   27.7152 C   0  0  0  0  0  0  0  0  0  0  0  0
  -12.8419  -23.4650   28.6408 C   0  0  0  0  0  0  0  0  0  0  0  0
  -11.9628  -22.4014   28.4082 C   0  0  0  0  0  0  0  0  0  0  0  0
  -11.5454  -21.6104   29.4947 C   0  0  0  0  0  0  0  0  0  0  0  0
  -11.7959  -22.1758   30.7522 C   0  0  0  0  0  0  0  0  0  0  0  0
  -11.0474  -22.2465   31.9142 N   0  0  0  0  0  0  0  0  0  0  0  0
  -10.6223  -23.5690   31.9043 C   0  0  0  0  0  0  0  0  0  0  0  0
  -11.2747  -24.1481   30.8559 C   0  0  0  0  0  0  0  0  0  0  0  0
  -12.4468  -23.4037   30.7971 C   0  0  0  0  0  0  0  0  0  0  0  0
  -13.4309  -23.5586   29.8782 C   0  0  0  0  0  0  0  0  0  0  0  0
  -10.8539  -25.3041   30.0376 C   0  0  0  0  0  0  0  0  0  0  0  0
  -11.2416  -26.5278   30.7695 C   0  0  0  0  0  0  0  0  0  0  0  0
  -10.3245  -26.6492   31.9539 C   0  0  0  0  0  0  0  0  0  0  0  0
  -10.2681  -25.5582   33.0748 C   0  0  0  0  0  0  0  0  0  0  0  0
   -9.5868  -24.2804   32.6264 C   0  0  0  0  0  0  0  0  0  0  0  0
  -13.2018  -24.0792   26.4016 N   0  0  0  0  0  0  0  0  0  0  0  0
  -13.7298  -24.6458   25.1659 C   0  0  0  0  0  0  0  0  0  0  0  0
  -13.4371  -26.1173   25.1356 C   0  0  0  0  0  0  0  0  0  0  0  0
  -12.0212  -26.0837   25.6018 C   0  0  0  0  0  0  0  0  0  0  0  0
  -11.9112  -24.6021   25.8319 C   0  0  0  0  0  0  0  0  0  0  0  0
  -11.5872  -22.1926   27.4135 H   0  0  0  0  0  0  0  0  0  0  0  0
  -10.7891  -20.8664   29.3650 H   0  0  0  0  0  0  0  0  0  0  0  0
  -10.4952  -21.4778   32.2489 H   0  0  0  0  0  0  0  0  0  0  0  0
  -14.3680  -23.0689   30.0846 H   0  0  0  0  0  0  0  0  0  0  0  0
  -11.2919  -25.3329   29.0432 H   0  0  0  0  0  0  0  0  0  0  0  0
   -9.7726  -25.2660   29.8511 H   0  0  0  0  0  0  0  0  0  0  0  0
  -12.2878  -26.5038   31.0728 H   0  0  0  0  0  0  0  0  0  0  0  0
  -11.1286  -27.3929   30.1161 H   0  0  0  0  0  0  0  0  0  0  0  0
   -9.3109  -26.7871   31.5575 H   0  0  0  0  0  0  0  0  0  0  0  0
  -10.6513  -27.5887   32.3747 H   0  0  0  0  0  0  0  0  0  0  0  0
   -9.6867  -25.8993   33.9149 H   0  0  0  0  0  0  0  0  0  0  0  0
  -11.2580  -25.3412   33.4890 H   0  0  0  0  0  0  0  0  0  0  0  0
   -8.7420  -24.5525   31.9937 H   0  0  0  0  0  0  0  0  0  0  0  0
   -9.1746  -23.6768   33.4156 H   0  0  0  0  0  0  0  0  0  0  0  0
  -13.5676  -23.9698   24.3205 H   0  0  0  0  0  0  0  0  0  0  0  0
  -14.8235  -24.5794   25.2741 H   0  0  0  0  0  0  0  0  0  0  0  0
  -14.0723  -26.6543   25.8500 H   0  0  0  0  0  0  0  0  0  0  0  0
  -13.6107  -26.5652   24.1672 H   0  0  0  0  0  0  0  0  0  0  0  0
  -11.8904  -26.6365   26.5385 H   0  0  0  0  0  0  0  0  0  0  0  0
  -11.2931  -26.4574   24.8882 H   0  0  0  0  0  0  0  0  0  0  0  0
  -11.5670  -23.9997   24.9779 H   0  0  0  0  0  0  0  0  0  0  0  0
  -11.1196  -24.4486   26.5792 H   0  0  0  0  0  0  0  0  0  0  0  0
  1  2  2  0
  2  3  1  0
  3  4  2  0
  4  5  1  0
  5  6  2  0
  6  7  1  0
  7  8  1  0
  8  9  2  0
  9 10  1  0
 10 11  2  0
  9 12  1  0
 12 13  1  0
 13 14  1  0
 14 15  1  0
 15 16  1  0
  2 17  1  0
 17 18  1  0
 18 19  1  0
 19 20  1  0
 20 21  1  0
 11  3  1  0
 21 17  1  0
 10  6  1  0
 16  8  1  0
  4 22  1  0
  5 23  1  0
  7 24  1  0
 11 25  1  0
 12 26  1  0
 12 27  1  0
 13 28  1  0
 13 29  1  0
 14 30  1  0
 14 31  1  0
 15 32  1  0
 15 33  1  0
 16 34  1  0
 16 35  1  0
 18 36  1  0
 18 37  1  0
 19 38  1  0
 19 39  1  0
 20 40  1  0
 20 41  1  0
 21 42  1  0
 21 43  1  0
M  END
>  <Energy>  (40) 
217.91263538501209

>  <compound_id>  (40) 
51696

>  <target_id>  (40) 
1

>  <reference_id>  (40) 
39

>  <inspiration_ids>  (40) 
[3, 39]

>  <energy_score>  (40) 
52.286051850609965

>  <distance_score>  (40) 
3.3392095004457554

>  <path>  (40) 
/opt/xchem-fragalysis-2/maxwin/BulkDock/SCRATCH/511021/C51696-P39/C51696-P39.minimised.mol

>  <scratch_subdir>  (40) 
/opt/xchem-fragalysis-2/maxwin/BulkDock/SCRATCH/511021/C51696-P39

>  <fragmenstein_runtime>  (40) 
16.57422137260437

>  <fragmenstein_outcome>  (40) 
too moved

>  <fragmenstein_mode>  (40) 
expansion

>  <fragmenstein_error>  (40) 


$$$$
C51697-P3
     RDKit          3D

 42 45  0  0  0  0  0  0  0  0999 V2000
  -16.0999  -27.5653   25.7937 N   0  0  0  0  0  0  0  0  0  0  0  0
  -16.2290  -26.6311   26.8985 C   0  0  0  0  0  0  0  0  0  0  0  0
  -16.1422  -25.2086   26.4760 C   0  0  0  0  0  0  0  0  0  0  0  0
  -15.3841  -24.7178   27.6823 C   0  0  0  0  0  0  0  0  0  0  0  0
  -14.1258  -25.5181   27.9370 N   0  0  0  0  0  0  0  0  0  0  0  0
  -13.1212  -25.1754   26.9851 C   0  0  0  0  0  0  0  0  0  0  0  0
  -12.8667  -25.6507   25.9140 O   0  0  0  0  0  0  0  0  0  0  0  0
  -12.3365  -24.0192   27.4945 C   0  0  0  0  0  0  0  0  0  0  0  0
  -12.4202  -22.7703   26.8737 C   0  0  0  0  0  0  0  0  0  0  0  0
  -11.9818  -21.6136   27.5352 C   0  0  0  0  0  0  0  0  0  0  0  0
  -11.4695  -21.7722   28.8273 C   0  0  0  0  0  0  0  0  0  0  0  0
  -11.1776  -20.8419   29.8056 N   0  0  0  0  0  0  0  0  0  0  0  0
  -10.6921  -21.4984   30.9032 C   0  0  0  0  0  0  0  0  0  0  0  0
  -10.5414  -22.8233   30.5818 C   0  0  0  0  0  0  0  0  0  0  0  0
  -11.2345  -23.0308   29.3801 C   0  0  0  0  0  0  0  0  0  0  0  0
  -11.6855  -24.1767   28.7175 C   0  0  0  0  0  0  0  0  0  0  0  0
   -9.8038  -23.7948   31.4077 C   0  0  0  0  0  0  0  0  0  0  0  0
   -9.2089  -23.1769   32.6674 C   0  0  0  0  0  0  0  0  0  0  0  0
   -9.1043  -21.6520   32.7446 C   0  0  0  0  0  0  0  0  0  0  0  0
  -10.3183  -20.8935   32.2029 C   0  0  0  0  0  0  0  0  0  0  0  0
  -15.1171  -26.6539   27.9566 C   0  0  0  0  0  0  0  0  0  0  0  0
  -16.8799  -27.4595   25.1464 H   0  0  0  0  0  0  0  0  0  0  0  0
  -16.1310  -28.5247   26.1368 H   0  0  0  0  0  0  0  0  0  0  0  0
  -17.1859  -26.8326   27.3961 H   0  0  0  0  0  0  0  0  0  0  0  0
  -15.5654  -25.0658   25.5559 H   0  0  0  0  0  0  0  0  0  0  0  0
  -17.1179  -24.7293   26.3565 H   0  0  0  0  0  0  0  0  0  0  0  0
  -15.0872  -23.6797   27.4867 H   0  0  0  0  0  0  0  0  0  0  0  0
  -15.9949  -24.6530   28.5999 H   0  0  0  0  0  0  0  0  0  0  0  0
  -12.9060  -22.6790   25.9044 H   0  0  0  0  0  0  0  0  0  0  0  0
  -12.1164  -20.6312   27.0927 H   0  0  0  0  0  0  0  0  0  0  0  0
  -11.3452  -19.8437   29.7370 H   0  0  0  0  0  0  0  0  0  0  0  0
  -11.5960  -25.1567   29.1757 H   0  0  0  0  0  0  0  0  0  0  0  0
  -10.4340  -24.6530   31.6628 H   0  0  0  0  0  0  0  0  0  0  0  0
   -8.9800  -24.1889   30.8028 H   0  0  0  0  0  0  0  0  0  0  0  0
   -8.1950  -23.5743   32.7573 H   0  0  0  0  0  0  0  0  0  0  0  0
   -9.7719  -23.5249   33.5346 H   0  0  0  0  0  0  0  0  0  0  0  0
   -8.2136  -21.3621   32.1869 H   0  0  0  0  0  0  0  0  0  0  0  0
   -8.9158  -21.3599   33.7809 H   0  0  0  0  0  0  0  0  0  0  0  0
  -10.1005  -19.8263   32.1064 H   0  0  0  0  0  0  0  0  0  0  0  0
  -11.1507  -20.9876   32.9066 H   0  0  0  0  0  0  0  0  0  0  0  0
  -15.5300  -26.7387   28.9751 H   0  0  0  0  0  0  0  0  0  0  0  0
  -14.5107  -27.5610   27.8266 H   0  0  0  0  0  0  0  0  0  0  0  0
  1  2  1  0
  2  3  1  0
  3  4  1  0
  4  5  1  0
  5  6  1  0
  6  7  2  0
  6  8  1  0
  8  9  2  0
  9 10  1  0
 10 11  2  0
 11 12  1  0
 12 13  1  0
 13 14  2  0
 14 15  1  0
 15 16  2  0
 14 17  1  0
 17 18  1  0
 18 19  1  0
 19 20  1  0
  5 21  1  0
 21  2  1  0
 16  8  1  0
 15 11  1  0
 20 13  1  0
  1 22  1  0
  1 23  1  0
  2 24  1  0
  3 25  1  0
  3 26  1  0
  4 27  1  0
  4 28  1  0
  9 29  1  0
 10 30  1  0
 12 31  1  0
 16 32  1  0
 17 33  1  0
 17 34  1  0
 18 35  1  0
 18 36  1  0
 19 37  1  0
 19 38  1  0
 20 39  1  0
 20 40  1  0
 21 41  1  0
 21 42  1  0
M  END
>  <Energy>  (41) 
120.94164104636617

>  <compound_id>  (41) 
51697

>  <target_id>  (41) 
1

>  <reference_id>  (41) 
3

>  <inspiration_ids>  (41) 
[3, 39]

>  <energy_score>  (41) 
37.29283283059246

>  <distance_score>  (41) 
4.31373377531336

>  <path>  (41) 
/opt/xchem-fragalysis-2/maxwin/BulkDock/SCRATCH/511021/C51697-P3/C51697-P3.minimised.mol

>  <scratch_subdir>  (41) 
/opt/xchem-fragalysis-2/maxwin/BulkDock/SCRATCH/511021/C51697-P3

>  <fragmenstein_runtime>  (41) 
14.745253562927246

>  <fragmenstein_outcome>  (41) 
too moved

>  <fragmenstein_mode>  (41) 
expansion

>  <fragmenstein_error>  (41) 


$$$$
C51697-P39
     RDKit          3D

 42 45  0  0  0  0  0  0  0  0999 V2000
  -10.9015  -27.0120   26.1724 N   0  0  0  0  0  0  0  0  0  0  0  0
  -11.7991  -26.1666   25.4142 C   0  0  0  0  0  0  0  0  0  0  0  0
  -11.2590  -24.7754   25.4338 C   0  0  0  0  0  0  0  0  0  0  0  0
  -12.5368  -24.1080   25.8134 C   0  0  0  0  0  0  0  0  0  0  0  0
  -13.1292  -24.8332   26.9930 N   0  0  0  0  0  0  0  0  0  0  0  0
  -12.3111  -24.6792   28.1227 C   0  0  0  0  0  0  0  0  0  0  0  0
  -11.4026  -25.3517   28.5293 O   0  0  0  0  0  0  0  0  0  0  0  0
  -12.5538  -23.4554   28.8499 C   0  0  0  0  0  0  0  0  0  0  0  0
  -11.7742  -22.3652   28.5077 C   0  0  0  0  0  0  0  0  0  0  0  0
  -11.4084  -21.4681   29.4718 C   0  0  0  0  0  0  0  0  0  0  0  0
  -11.7121  -21.8096   30.7650 C   0  0  0  0  0  0  0  0  0  0  0  0
  -10.9850  -21.5653   31.9028 N   0  0  0  0  0  0  0  0  0  0  0  0
  -11.0245  -22.8039   32.4827 C   0  0  0  0  0  0  0  0  0  0  0  0
  -12.3634  -23.1163   32.4628 C   0  0  0  0  0  0  0  0  0  0  0  0
  -12.6100  -22.8039   31.1130 C   0  0  0  0  0  0  0  0  0  0  0  0
  -13.0944  -23.6220   30.1035 C   0  0  0  0  0  0  0  0  0  0  0  0
  -12.8607  -24.2740   33.2158 C   0  0  0  0  0  0  0  0  0  0  0  0
  -11.7332  -24.7810   34.0940 C   0  0  0  0  0  0  0  0  0  0  0  0
  -10.4582  -25.0686   33.3155 C   0  0  0  0  0  0  0  0  0  0  0  0
   -9.9316  -23.8091   32.6544 C   0  0  0  0  0  0  0  0  0  0  0  0
  -13.2082  -25.9222   26.0048 C   0  0  0  0  0  0  0  0  0  0  0  0
  -10.2198  -27.4578   25.5674 H   0  0  0  0  0  0  0  0  0  0  0  0
  -11.4609  -27.7581   26.5833 H   0  0  0  0  0  0  0  0  0  0  0  0
  -11.9303  -26.6068   24.4324 H   0  0  0  0  0  0  0  0  0  0  0  0
  -10.8187  -24.4016   24.5162 H   0  0  0  0  0  0  0  0  0  0  0  0
  -10.5130  -24.6010   26.2173 H   0  0  0  0  0  0  0  0  0  0  0  0
  -12.2856  -23.0948   26.1023 H   0  0  0  0  0  0  0  0  0  0  0  0
  -13.2715  -23.9398   25.0077 H   0  0  0  0  0  0  0  0  0  0  0  0
  -11.2708  -22.2938   27.5559 H   0  0  0  0  0  0  0  0  0  0  0  0
  -10.6139  -20.7947   29.2582 H   0  0  0  0  0  0  0  0  0  0  0  0
  -10.1808  -20.9600   31.9035 H   0  0  0  0  0  0  0  0  0  0  0  0
  -13.4508  -24.5984   30.3646 H   0  0  0  0  0  0  0  0  0  0  0  0
  -13.0896  -25.0435   32.4954 H   0  0  0  0  0  0  0  0  0  0  0  0
  -13.7471  -24.0171   33.8014 H   0  0  0  0  0  0  0  0  0  0  0  0
  -11.9912  -25.6487   34.6786 H   0  0  0  0  0  0  0  0  0  0  0  0
  -11.5797  -23.9873   34.8091 H   0  0  0  0  0  0  0  0  0  0  0  0
  -10.6433  -25.8327   32.5512 H   0  0  0  0  0  0  0  0  0  0  0  0
   -9.6856  -25.4666   33.9722 H   0  0  0  0  0  0  0  0  0  0  0  0
   -9.0755  -23.4013   33.1858 H   0  0  0  0  0  0  0  0  0  0  0  0
   -9.5703  -24.1507   31.6829 H   0  0  0  0  0  0  0  0  0  0  0  0
  -13.5330  -26.7957   26.5814 H   0  0  0  0  0  0  0  0  0  0  0  0
  -14.0034  -25.7731   25.2557 H   0  0  0  0  0  0  0  0  0  0  0  0
  1  2  1  0
  2  3  1  0
  3  4  1  0
  4  5  1  0
  5  6  1  0
  6  7  2  0
  6  8  1  0
  8  9  2  0
  9 10  1  0
 10 11  2  0
 11 12  1  0
 12 13  1  0
 13 14  2  0
 14 15  1  0
 15 16  2  0
 14 17  1  0
 17 18  1  0
 18 19  1  0
 19 20  1  0
  5 21  1  0
 21  2  1  0
 16  8  1  0
 15 11  1  0
 20 13  1  0
  1 22  1  0
  1 23  1  0
  2 24  1  0
  3 25  1  0
  3 26  1  0
  4 27  1  0
  4 28  1  0
  9 29  1  0
 10 30  1  0
 12 31  1  0
 16 32  1  0
 17 33  1  0
 17 34  1  0
 18 35  1  0
 18 36  1  0
 19 37  1  0
 19 38  1  0
 20 39  1  0
 20 40  1  0
 21 41  1  0
 21 42  1  0
M  END
>  <Energy>  (42) 
196.47121994493671

>  <compound_id>  (42) 
51697

>  <target_id>  (42) 
1

>  <reference_id>  (42) 
39

>  <inspiration_ids>  (42) 
[3, 39]

>  <energy_score>  (42) 
112.82241172915928

>  <distance_score>  (42) 
3.1729613761601945

>  <path>  (42) 
/opt/xchem-fragalysis-2/maxwin/BulkDock/SCRATCH/511021/C51697-P39/C51697-P39.minimised.mol

>  <scratch_subdir>  (42) 
/opt/xchem-fragalysis-2/maxwin/BulkDock/SCRATCH/511021/C51697-P39

>  <fragmenstein_runtime>  (42) 
13.915691614151001

>  <fragmenstein_outcome>  (42) 
too moved

>  <fragmenstein_mode>  (42) 
expansion

>  <fragmenstein_error>  (42) 


$$$$
C51698-P3
     RDKit          3D

 48 51  0  0  0  0  0  0  0  0999 V2000
  -15.8454  -27.9329   30.6440 N   0  0  0  0  0  0  0  0  0  0  0  0
  -15.0831  -26.4586   30.3961 S   0  0  0  0  0  0  0  0  0  0  0  0
  -15.5333  -25.6668   31.5174 O   0  0  0  0  0  0  0  0  0  0  0  0
  -13.6974  -26.8462   30.2563 O   0  0  0  0  0  0  0  0  0  0  0  0
  -15.8697  -25.8895   28.8324 C   0  0  0  0  0  0  0  0  0  0  0  0
  -15.3459  -26.3522   27.4433 C   0  0  0  0  0  0  0  0  0  0  0  0
  -14.2701  -27.3631   27.4228 C   0  0  0  0  0  0  0  0  0  0  0  0
  -13.0794  -26.4455   27.2276 C   0  0  0  0  0  0  0  0  0  0  0  0
  -13.2982  -24.9276   27.2536 N   0  0  0  0  0  0  0  0  0  0  0  0
  -13.0514  -24.4171   28.5378 C   0  0  0  0  0  0  0  0  0  0  0  0
  -13.7926  -24.2506   29.4674 O   0  0  0  0  0  0  0  0  0  0  0  0
  -11.6781  -24.1061   28.9317 C   0  0  0  0  0  0  0  0  0  0  0  0
  -11.1713  -25.0720   29.8147 C   0  0  0  0  0  0  0  0  0  0  0  0
  -10.3507  -24.7179   30.8634 C   0  0  0  0  0  0  0  0  0  0  0  0
  -10.0476  -23.3940   31.0175 C   0  0  0  0  0  0  0  0  0  0  0  0
   -9.3677  -22.8236   32.0593 N   0  0  0  0  0  0  0  0  0  0  0  0
   -9.9123  -21.5949   32.1939 C   0  0  0  0  0  0  0  0  0  0  0  0
  -10.5749  -21.2497   31.0391 C   0  0  0  0  0  0  0  0  0  0  0  0
  -10.6087  -22.4026   30.2207 C   0  0  0  0  0  0  0  0  0  0  0  0
  -11.3459  -22.7505   29.0703 C   0  0  0  0  0  0  0  0  0  0  0  0
  -11.3733  -20.0055   30.9374 C   0  0  0  0  0  0  0  0  0  0  0  0
  -11.2405  -19.1134   32.1717 C   0  0  0  0  0  0  0  0  0  0  0  0
  -11.1337  -19.9256   33.4640 C   0  0  0  0  0  0  0  0  0  0  0  0
   -9.9127  -20.8496   33.4462 C   0  0  0  0  0  0  0  0  0  0  0  0
  -14.5685  -25.3217   26.5968 C   0  0  0  0  0  0  0  0  0  0  0  0
  -15.1412  -28.6650   30.7506 H   0  0  0  0  0  0  0  0  0  0  0  0
  -16.4505  -27.8522   31.4655 H   0  0  0  0  0  0  0  0  0  0  0  0
  -15.9642  -24.8002   28.8799 H   0  0  0  0  0  0  0  0  0  0  0  0
  -16.9062  -26.2417   28.9321 H   0  0  0  0  0  0  0  0  0  0  0  0
  -16.2149  -26.6878   26.8642 H   0  0  0  0  0  0  0  0  0  0  0  0
  -14.3636  -28.0202   26.5477 H   0  0  0  0  0  0  0  0  0  0  0  0
  -14.2042  -28.0324   28.2789 H   0  0  0  0  0  0  0  0  0  0  0  0
  -12.6015  -26.6596   26.2563 H   0  0  0  0  0  0  0  0  0  0  0  0
  -12.3006  -26.7157   27.9449 H   0  0  0  0  0  0  0  0  0  0  0  0
  -11.5359  -26.0928   29.8065 H   0  0  0  0  0  0  0  0  0  0  0  0
  -10.1220  -25.3855   31.6711 H   0  0  0  0  0  0  0  0  0  0  0  0
   -8.8839  -23.3426   32.7871 H   0  0  0  0  0  0  0  0  0  0  0  0
  -11.8870  -21.9889   28.5184 H   0  0  0  0  0  0  0  0  0  0  0  0
  -11.1566  -19.4519   30.0191 H   0  0  0  0  0  0  0  0  0  0  0  0
  -12.3992  -20.3428   30.9064 H   0  0  0  0  0  0  0  0  0  0  0  0
  -10.3699  -18.4652   32.0399 H   0  0  0  0  0  0  0  0  0  0  0  0
  -12.1116  -18.4655   32.2653 H   0  0  0  0  0  0  0  0  0  0  0  0
  -11.1552  -19.2684   34.3320 H   0  0  0  0  0  0  0  0  0  0  0  0
  -12.0304  -20.5227   33.5813 H   0  0  0  0  0  0  0  0  0  0  0  0
   -8.9679  -20.3050   33.4549 H   0  0  0  0  0  0  0  0  0  0  0  0
   -9.9451  -21.5279   34.3054 H   0  0  0  0  0  0  0  0  0  0  0  0
  -14.4093  -25.6147   25.5448 H   0  0  0  0  0  0  0  0  0  0  0  0
  -15.1678  -24.4024   26.5532 H   0  0  0  0  0  0  0  0  0  0  0  0
  1  2  1  0
  2  3  2  0
  2  4  2  0
  2  5  1  0
  5  6  1  0
  6  7  1  0
  7  8  1  0
  8  9  1  0
  9 10  1  0
 10 11  2  0
 10 12  1  0
 12 13  2  0
 13 14  1  0
 14 15  2  0
 15 16  1  0
 16 17  1  0
 17 18  2  0
 18 19  1  0
 19 20  2  0
 18 21  1  0
 21 22  1  0
 22 23  1  0
 23 24  1  0
  9 25  1  0
 25  6  1  0
 20 12  1  0
 19 15  1  0
 24 17  1  0
  1 26  1  0
  1 27  1  0
  5 28  1  0
  5 29  1  0
  6 30  1  0
  7 31  1  0
  7 32  1  0
  8 33  1  0
  8 34  1  0
 13 35  1  0
 14 36  1  0
 16 37  1  0
 20 38  1  0
 21 39  1  0
 21 40  1  0
 22 41  1  0
 22 42  1  0
 23 43  1  0
 23 44  1  0
 24 45  1  0
 24 46  1  0
 25 47  1  0
 25 48  1  0
M  END
>  <Energy>  (43) 
55.068621558653561

>  <compound_id>  (43) 
51698

>  <target_id>  (43) 
1

>  <reference_id>  (43) 
3

>  <inspiration_ids>  (43) 
[3, 39]

>  <energy_score>  (43) 
54.59989649509767

>  <distance_score>  (43) 
3.884538154194233

>  <path>  (43) 
/opt/xchem-fragalysis-2/maxwin/BulkDock/SCRATCH/511021/C51698-P3/C51698-P3.minimised.mol

>  <scratch_subdir>  (43) 
/opt/xchem-fragalysis-2/maxwin/BulkDock/SCRATCH/511021/C51698-P3

>  <fragmenstein_runtime>  (43) 
30.717959880828857

>  <fragmenstein_outcome>  (43) 
too moved

>  <fragmenstein_mode>  (43) 
expansion

>  <fragmenstein_error>  (43) 


$$$$
C51698-P39
     RDKit          3D

 48 51  0  0  0  0  0  0  0  0999 V2000
   -9.2156  -26.0341   31.8109 N   0  0  0  0  0  0  0  0  0  0  0  0
  -10.6437  -26.0007   30.9535 S   0  0  0  0  0  0  0  0  0  0  0  0
  -11.2857  -24.8439   31.5133 O   0  0  0  0  0  0  0  0  0  0  0  0
  -11.2416  -27.3117   31.0453 O   0  0  0  0  0  0  0  0  0  0  0  0
   -9.9654  -25.8016   29.3013 C   0  0  0  0  0  0  0  0  0  0  0  0
  -10.8394  -25.3610   28.1302 C   0  0  0  0  0  0  0  0  0  0  0  0
  -12.2986  -25.6331   28.2382 C   0  0  0  0  0  0  0  0  0  0  0  0
  -12.7544  -24.2440   28.6488 C   0  0  0  0  0  0  0  0  0  0  0  0
  -11.6620  -23.4871   29.3461 N   0  0  0  0  0  0  0  0  0  0  0  0
  -12.1304  -22.2506   29.7860 C   0  0  0  0  0  0  0  0  0  0  0  0
  -12.1352  -21.1827   29.2444 O   0  0  0  0  0  0  0  0  0  0  0  0
  -12.6529  -22.2548   31.1854 C   0  0  0  0  0  0  0  0  0  0  0  0
  -11.8276  -21.7502   32.1806 C   0  0  0  0  0  0  0  0  0  0  0  0
  -12.3796  -21.2315   33.3570 C   0  0  0  0  0  0  0  0  0  0  0  0
  -13.7655  -21.2004   33.4868 C   0  0  0  0  0  0  0  0  0  0  0  0
  -14.5342  -20.5257   34.4023 N   0  0  0  0  0  0  0  0  0  0  0  0
  -15.8528  -20.7142   34.1247 C   0  0  0  0  0  0  0  0  0  0  0  0
  -15.9462  -21.4908   32.9881 C   0  0  0  0  0  0  0  0  0  0  0  0
  -14.6204  -21.7567   32.5476 C   0  0  0  0  0  0  0  0  0  0  0  0
  -14.0378  -22.3118   31.3940 C   0  0  0  0  0  0  0  0  0  0  0  0
  -17.2628  -21.8461   32.3833 C   0  0  0  0  0  0  0  0  0  0  0  0
  -18.4184  -21.6099   33.3761 C   0  0  0  0  0  0  0  0  0  0  0  0
  -18.2860  -20.2654   34.1126 C   0  0  0  0  0  0  0  0  0  0  0  0
  -16.9837  -20.1795   34.9279 C   0  0  0  0  0  0  0  0  0  0  0  0
  -10.9248  -23.8630   28.1218 C   0  0  0  0  0  0  0  0  0  0  0  0
   -9.0793  -26.9706   32.2259 H   0  0  0  0  0  0  0  0  0  0  0  0
   -9.2375  -25.3173   32.5355 H   0  0  0  0  0  0  0  0  0  0  0  0
   -9.5741  -26.7868   29.0547 H   0  0  0  0  0  0  0  0  0  0  0  0
   -9.1038  -25.1381   29.3920 H   0  0  0  0  0  0  0  0  0  0  0  0
  -10.4173  -25.7340   27.1936 H   0  0  0  0  0  0  0  0  0  0  0  0
  -12.7519  -25.9123   27.2809 H   0  0  0  0  0  0  0  0  0  0  0  0
  -12.5396  -26.4137   28.9579 H   0  0  0  0  0  0  0  0  0  0  0  0
  -13.5938  -24.3302   29.3409 H   0  0  0  0  0  0  0  0  0  0  0  0
  -13.1502  -23.6671   27.8072 H   0  0  0  0  0  0  0  0  0  0  0  0
  -10.7703  -21.6277   31.9794 H   0  0  0  0  0  0  0  0  0  0  0  0
  -11.7888  -20.6806   34.0711 H   0  0  0  0  0  0  0  0  0  0  0  0
  -14.1583  -19.9597   35.1497 H   0  0  0  0  0  0  0  0  0  0  0  0
  -14.6880  -22.6395   30.6072 H   0  0  0  0  0  0  0  0  0  0  0  0
  -17.4207  -21.2209   31.4966 H   0  0  0  0  0  0  0  0  0  0  0  0
  -17.2803  -22.8919   32.0695 H   0  0  0  0  0  0  0  0  0  0  0  0
  -19.3727  -21.6491   32.8388 H   0  0  0  0  0  0  0  0  0  0  0  0
  -18.4342  -22.4202   34.1165 H   0  0  0  0  0  0  0  0  0  0  0  0
  -18.3105  -19.4552   33.3731 H   0  0  0  0  0  0  0  0  0  0  0  0
  -19.1437  -20.1160   34.7780 H   0  0  0  0  0  0  0  0  0  0  0  0
  -16.7989  -19.1416   35.2251 H   0  0  0  0  0  0  0  0  0  0  0  0
  -17.0865  -20.7760   35.8421 H   0  0  0  0  0  0  0  0  0  0  0  0
  -11.3053  -23.3995   27.1944 H   0  0  0  0  0  0  0  0  0  0  0  0
   -9.9264  -23.4200   28.2098 H   0  0  0  0  0  0  0  0  0  0  0  0
  1  2  1  0
  2  3  2  0
  2  4  2  0
  2  5  1  0
  5  6  1  0
  6  7  1  0
  7  8  1  0
  8  9  1  0
  9 10  1  0
 10 11  2  0
 10 12  1  0
 12 13  2  0
 13 14  1  0
 14 15  2  0
 15 16  1  0
 16 17  1  0
 17 18  2  0
 18 19  1  0
 19 20  2  0
 18 21  1  0
 21 22  1  0
 22 23  1  0
 23 24  1  0
  9 25  1  0
 25  6  1  0
 20 12  1  0
 19 15  1  0
 24 17  1  0
  1 26  1  0
  1 27  1  0
  5 28  1  0
  5 29  1  0
  6 30  1  0
  7 31  1  0
  7 32  1  0
  8 33  1  0
  8 34  1  0
 13 35  1  0
 14 36  1  0
 16 37  1  0
 20 38  1  0
 21 39  1  0
 21 40  1  0
 22 41  1  0
 22 42  1  0
 23 43  1  0
 23 44  1  0
 24 45  1  0
 24 46  1  0
 25 47  1  0
 25 48  1  0
M  END
>  <Energy>  (44) 
19.29712582543079

>  <compound_id>  (44) 
51698

>  <target_id>  (44) 
1

>  <reference_id>  (44) 
39

>  <inspiration_ids>  (44) 
[3, 39]

>  <energy_score>  (44) 
18.82840076187435

>  <distance_score>  (44) 
3.617231517218304

>  <path>  (44) 
/opt/xchem-fragalysis-2/maxwin/BulkDock/SCRATCH/511021/C51698-P39/C51698-P39.minimised.mol

>  <scratch_subdir>  (44) 
/opt/xchem-fragalysis-2/maxwin/BulkDock/SCRATCH/511021/C51698-P39

>  <fragmenstein_runtime>  (44) 
37.07990574836731

>  <fragmenstein_outcome>  (44) 
too moved

>  <fragmenstein_mode>  (44) 
expansion

>  <fragmenstein_error>  (44) 


$$$$
C51682-P3
     RDKit          3D

 50 53  0  0  0  0  0  0  0  0999 V2000
  -14.6710  -26.3233   30.9508 C   0  0  0  0  0  0  0  0  0  0  0  0
  -16.0288  -25.6939   30.6613 C   0  0  0  0  0  0  0  0  0  0  0  0
  -17.1051  -26.7472   30.4969 C   0  0  0  0  0  0  0  0  0  0  0  0
  -16.0010  -24.7282   29.6128 O   0  0  0  0  0  0  0  0  0  0  0  0
  -16.2054  -25.0748   28.2280 C   0  0  0  0  0  0  0  0  0  0  0  0
  -15.9076  -23.8136   27.4884 C   0  0  0  0  0  0  0  0  0  0  0  0
  -14.4062  -24.0281   27.3134 C   0  0  0  0  0  0  0  0  0  0  0  0
  -13.8473  -25.2329   28.0822 N   0  0  0  0  0  0  0  0  0  0  0  0
  -12.5026  -25.4446   27.7460 C   0  0  0  0  0  0  0  0  0  0  0  0
  -12.0086  -26.1227   26.8876 O   0  0  0  0  0  0  0  0  0  0  0  0
  -11.6771  -24.7309   28.7587 C   0  0  0  0  0  0  0  0  0  0  0  0
  -11.4503  -25.5963   29.8379 C   0  0  0  0  0  0  0  0  0  0  0  0
  -10.8676  -25.1571   31.0082 C   0  0  0  0  0  0  0  0  0  0  0  0
  -10.3858  -23.8690   31.0354 C   0  0  0  0  0  0  0  0  0  0  0  0
   -9.6360  -23.2635   32.0148 N   0  0  0  0  0  0  0  0  0  0  0  0
   -9.9225  -21.9419   31.9457 C   0  0  0  0  0  0  0  0  0  0  0  0
  -10.5477  -21.6830   30.7394 C   0  0  0  0  0  0  0  0  0  0  0  0
  -10.7424  -22.9264   30.0716 C   0  0  0  0  0  0  0  0  0  0  0  0
  -11.3937  -23.3616   28.8823 C   0  0  0  0  0  0  0  0  0  0  0  0
  -11.1650  -20.3597   30.4565 C   0  0  0  0  0  0  0  0  0  0  0  0
  -11.0763  -19.3877   31.6489 C   0  0  0  0  0  0  0  0  0  0  0  0
  -10.9843  -20.0650   33.0170 C   0  0  0  0  0  0  0  0  0  0  0  0
   -9.7929  -21.0178   33.0892 C   0  0  0  0  0  0  0  0  0  0  0  0
  -15.0795  -25.8523   27.5694 C   0  0  0  0  0  0  0  0  0  0  0  0
  -13.9121  -25.5513   31.0558 H   0  0  0  0  0  0  0  0  0  0  0  0
  -14.7003  -26.9030   31.8793 H   0  0  0  0  0  0  0  0  0  0  0  0
  -14.3574  -26.9982   30.1508 H   0  0  0  0  0  0  0  0  0  0  0  0
  -16.2862  -25.1128   31.5556 H   0  0  0  0  0  0  0  0  0  0  0  0
  -17.1865  -27.3741   31.3907 H   0  0  0  0  0  0  0  0  0  0  0  0
  -16.8991  -27.4019   29.6437 H   0  0  0  0  0  0  0  0  0  0  0  0
  -18.0784  -26.2794   30.3141 H   0  0  0  0  0  0  0  0  0  0  0  0
  -17.2143  -25.4538   28.0498 H   0  0  0  0  0  0  0  0  0  0  0  0
  -16.3979  -23.7692   26.5093 H   0  0  0  0  0  0  0  0  0  0  0  0
  -16.1618  -22.9121   28.0456 H   0  0  0  0  0  0  0  0  0  0  0  0
  -14.1343  -24.1122   26.2454 H   0  0  0  0  0  0  0  0  0  0  0  0
  -13.8557  -23.1437   27.6343 H   0  0  0  0  0  0  0  0  0  0  0  0
  -11.7898  -26.6309   29.7877 H   0  0  0  0  0  0  0  0  0  0  0  0
  -10.8252  -25.7697   31.8953 H   0  0  0  0  0  0  0  0  0  0  0  0
   -9.2138  -23.7408   32.8071 H   0  0  0  0  0  0  0  0  0  0  0  0
  -11.6939  -22.6489   28.1244 H   0  0  0  0  0  0  0  0  0  0  0  0
  -10.7781  -19.9019   29.5408 H   0  0  0  0  0  0  0  0  0  0  0  0
  -12.2076  -20.5709   30.2727 H   0  0  0  0  0  0  0  0  0  0  0  0
  -10.2224  -18.7168   31.5182 H   0  0  0  0  0  0  0  0  0  0  0  0
  -11.9619  -18.7608   31.6658 H   0  0  0  0  0  0  0  0  0  0  0  0
  -10.9771  -19.3229   33.8122 H   0  0  0  0  0  0  0  0  0  0  0  0
  -11.8963  -20.6222   33.1962 H   0  0  0  0  0  0  0  0  0  0  0  0
   -8.8439  -20.4801   33.0254 H   0  0  0  0  0  0  0  0  0  0  0  0
   -9.8128  -21.5664   34.0369 H   0  0  0  0  0  0  0  0  0  0  0  0
  -15.1168  -25.9963   26.4757 H   0  0  0  0  0  0  0  0  0  0  0  0
  -15.0643  -26.8729   27.9710 H   0  0  0  0  0  0  0  0  0  0  0  0
  1  2  1  0
  2  3  1  0
  2  4  1  0
  4  5  1  0
  5  6  1  0
  6  7  1  0
  7  8  1  0
  8  9  1  0
  9 10  2  0
  9 11  1  0
 11 12  2  0
 12 13  1  0
 13 14  2  0
 14 15  1  0
 15 16  1  0
 16 17  2  0
 17 18  1  0
 18 19  2  0
 17 20  1  0
 20 21  1  0
 21 22  1  0
 22 23  1  0
  8 24  1  0
 24  5  1  0
 19 11  1  0
 18 14  1  0
 23 16  1  0
  1 25  1  0
  1 26  1  0
  1 27  1  0
  2 28  1  0
  3 29  1  0
  3 30  1  0
  3 31  1  0
  5 32  1  0
  6 33  1  0
  6 34  1  0
  7 35  1  0
  7 36  1  0
 12 37  1  0
 13 38  1  0
 15 39  1  0
 19 40  1  0
 20 41  1  0
 20 42  1  0
 21 43  1  0
 21 44  1  0
 22 45  1  0
 22 46  1  0
 23 47  1  0
 23 48  1  0
 24 49  1  0
 24 50  1  0
M  END
>  <Energy>  (45) 
146.18350846728453

>  <compound_id>  (45) 
51682

>  <target_id>  (45) 
1

>  <reference_id>  (45) 
3

>  <inspiration_ids>  (45) 
[3, 39]

>  <energy_score>  (45) 
57.23324429436556

>  <distance_score>  (45) 
3.837785837983632

>  <path>  (45) 
/opt/xchem-fragalysis-2/maxwin/BulkDock/SCRATCH/511021/C51682-P3/C51682-P3.minimised.mol

>  <scratch_subdir>  (45) 
/opt/xchem-fragalysis-2/maxwin/BulkDock/SCRATCH/511021/C51682-P3

>  <fragmenstein_runtime>  (45) 
35.59490990638733

>  <fragmenstein_outcome>  (45) 
too moved

>  <fragmenstein_mode>  (45) 
expansion

>  <fragmenstein_error>  (45) 


$$$$
C51682-P39
     RDKit          3D

 50 53  0  0  0  0  0  0  0  0999 V2000
  -10.0805  -23.8719   32.4898 C   0  0  0  0  0  0  0  0  0  0  0  0
  -10.6707  -25.2158   32.2399 C   0  0  0  0  0  0  0  0  0  0  0  0
  -10.4826  -25.7981   33.6191 C   0  0  0  0  0  0  0  0  0  0  0  0
   -9.9664  -25.9118   31.1961 O   0  0  0  0  0  0  0  0  0  0  0  0
  -10.4912  -25.9755   29.8425 C   0  0  0  0  0  0  0  0  0  0  0  0
  -11.9340  -26.3312   29.7948 C   0  0  0  0  0  0  0  0  0  0  0  0
  -12.4982  -24.9263   29.5781 C   0  0  0  0  0  0  0  0  0  0  0  0
  -11.5305  -23.8677   29.9775 N   0  0  0  0  0  0  0  0  0  0  0  0
  -12.0963  -22.5990   29.8122 C   0  0  0  0  0  0  0  0  0  0  0  0
  -12.0840  -21.8574   28.8734 O   0  0  0  0  0  0  0  0  0  0  0  0
  -12.7066  -22.1709   31.1201 C   0  0  0  0  0  0  0  0  0  0  0  0
  -11.9045  -21.5340   32.0637 C   0  0  0  0  0  0  0  0  0  0  0  0
  -12.4207  -21.0779   33.2817 C   0  0  0  0  0  0  0  0  0  0  0  0
  -13.7993  -21.1383   33.4544 C   0  0  0  0  0  0  0  0  0  0  0  0
  -14.5744  -20.5208   34.4036 N   0  0  0  0  0  0  0  0  0  0  0  0
  -15.8895  -20.7486   34.1424 C   0  0  0  0  0  0  0  0  0  0  0  0
  -15.9771  -21.5117   32.9960 C   0  0  0  0  0  0  0  0  0  0  0  0
  -14.6515  -21.7238   32.5255 C   0  0  0  0  0  0  0  0  0  0  0  0
  -14.0738  -22.2784   31.3655 C   0  0  0  0  0  0  0  0  0  0  0  0
  -17.2930  -21.8994   32.4077 C   0  0  0  0  0  0  0  0  0  0  0  0
  -18.4426  -21.6977   33.4149 C   0  0  0  0  0  0  0  0  0  0  0  0
  -18.3316  -20.3590   34.1654 C   0  0  0  0  0  0  0  0  0  0  0  0
  -17.0239  -20.2588   34.9696 C   0  0  0  0  0  0  0  0  0  0  0  0
  -10.6423  -24.6622   29.0917 C   0  0  0  0  0  0  0  0  0  0  0  0
   -9.0174  -23.9187   32.7299 H   0  0  0  0  0  0  0  0  0  0  0  0
  -10.1919  -23.2554   31.6383 H   0  0  0  0  0  0  0  0  0  0  0  0
  -10.6276  -23.3756   33.2837 H   0  0  0  0  0  0  0  0  0  0  0  0
  -11.7430  -25.1574   32.0550 H   0  0  0  0  0  0  0  0  0  0  0  0
  -11.1536  -25.3341   34.3507 H   0  0  0  0  0  0  0  0  0  0  0  0
   -9.4597  -25.6272   33.9600 H   0  0  0  0  0  0  0  0  0  0  0  0
  -10.6728  -26.8554   33.6323 H   0  0  0  0  0  0  0  0  0  0  0  0
   -9.8671  -26.6748   29.2862 H   0  0  0  0  0  0  0  0  0  0  0  0
  -12.1859  -26.9681   28.9399 H   0  0  0  0  0  0  0  0  0  0  0  0
  -12.2736  -26.8191   30.7090 H   0  0  0  0  0  0  0  0  0  0  0  0
  -13.3287  -24.7608   30.2488 H   0  0  0  0  0  0  0  0  0  0  0  0
  -12.9259  -24.7619   28.5732 H   0  0  0  0  0  0  0  0  0  0  0  0
  -10.8673  -21.3125   31.8294 H   0  0  0  0  0  0  0  0  0  0  0  0
  -11.8188  -20.4990   33.9693 H   0  0  0  0  0  0  0  0  0  0  0  0
  -14.2062  -19.9518   35.1530 H   0  0  0  0  0  0  0  0  0  0  0  0
  -14.7146  -22.6965   30.6155 H   0  0  0  0  0  0  0  0  0  0  0  0
  -17.2880  -22.9435   32.0887 H   0  0  0  0  0  0  0  0  0  0  0  0
  -17.4785  -21.2750   31.5257 H   0  0  0  0  0  0  0  0  0  0  0  0
  -18.4333  -22.5162   34.1463 H   0  0  0  0  0  0  0  0  0  0  0  0
  -19.4015  -21.7519   32.8872 H   0  0  0  0  0  0  0  0  0  0  0  0
  -18.3785  -19.5396   33.4367 H   0  0  0  0  0  0  0  0  0  0  0  0
  -19.1858  -20.2357   34.8405 H   0  0  0  0  0  0  0  0  0  0  0  0
  -16.8609  -19.2229   35.2865 H   0  0  0  0  0  0  0  0  0  0  0  0
  -17.1021  -20.8766   35.8719 H   0  0  0  0  0  0  0  0  0  0  0  0
  -10.9572  -24.7149   28.0331 H   0  0  0  0  0  0  0  0  0  0  0  0
   -9.6701  -24.1854   29.0211 H   0  0  0  0  0  0  0  0  0  0  0  0
  1  2  1  0
  2  3  1  0
  2  4  1  0
  4  5  1  0
  5  6  1  0
  6  7  1  0
  7  8  1  0
  8  9  1  0
  9 10  2  0
  9 11  1  0
 11 12  2  0
 12 13  1  0
 13 14  2  0
 14 15  1  0
 15 16  1  0
 16 17  2  0
 17 18  1  0
 18 19  2  0
 17 20  1  0
 20 21  1  0
 21 22  1  0
 22 23  1  0
  8 24  1  0
 24  5  1  0
 19 11  1  0
 18 14  1  0
 23 16  1  0
  1 25  1  0
  1 26  1  0
  1 27  1  0
  2 28  1  0
  3 29  1  0
  3 30  1  0
  3 31  1  0
  5 32  1  0
  6 33  1  0
  6 34  1  0
  7 35  1  0
  7 36  1  0
 12 37  1  0
 13 38  1  0
 15 39  1  0
 19 40  1  0
 20 41  1  0
 20 42  1  0
 21 43  1  0
 21 44  1  0
 22 45  1  0
 22 46  1  0
 23 47  1  0
 23 48  1  0
 24 49  1  0
 24 50  1  0
M  END
>  <Energy>  (46) 
146.70092081361636

>  <compound_id>  (46) 
51682

>  <target_id>  (46) 
1

>  <reference_id>  (46) 
39

>  <inspiration_ids>  (46) 
[3, 39]

>  <energy_score>  (46) 
57.7506566406974

>  <distance_score>  (46) 
3.6782369402873547

>  <path>  (46) 
/opt/xchem-fragalysis-2/maxwin/BulkDock/SCRATCH/511021/C51682-P39/C51682-P39.minimised.mol

>  <scratch_subdir>  (46) 
/opt/xchem-fragalysis-2/maxwin/BulkDock/SCRATCH/511021/C51682-P39

>  <fragmenstein_runtime>  (46) 
43.27492070198059

>  <fragmenstein_outcome>  (46) 
too moved

>  <fragmenstein_mode>  (46) 
expansion

>  <fragmenstein_error>  (46) 


$$$$
C51699-P3
     RDKit          3D

 48 51  0  0  0  0  0  0  0  0999 V2000
  -11.0250  -21.1036   22.2341 C   0  0  0  0  0  0  0  0  0  0  0  0
  -12.2607  -21.6567   22.7713 N   0  0  0  0  0  0  0  0  0  0  0  0
  -12.1459  -21.8326   24.1835 C   0  0  0  0  0  0  0  0  0  0  0  0
  -12.3682  -20.5465   24.8677 C   0  0  0  0  0  0  0  0  0  0  0  0
  -12.8170  -21.0433   26.2030 C   0  0  0  0  0  0  0  0  0  0  0  0
  -12.6046  -22.4912   26.4267 N   0  0  0  0  0  0  0  0  0  0  0  0
  -11.2317  -22.7632   26.9109 C   0  0  0  0  0  0  0  0  0  0  0  0
  -10.2545  -22.9932   26.3189 O   0  0  0  0  0  0  0  0  0  0  0  0
  -11.2132  -22.8245   28.3703 C   0  0  0  0  0  0  0  0  0  0  0  0
  -10.2952  -22.1717   29.1930 C   0  0  0  0  0  0  0  0  0  0  0  0
   -9.9481  -22.7011   30.4497 C   0  0  0  0  0  0  0  0  0  0  0  0
  -10.5863  -23.8874   30.8058 C   0  0  0  0  0  0  0  0  0  0  0  0
  -10.4011  -24.7626   31.8512 N   0  0  0  0  0  0  0  0  0  0  0  0
  -11.4482  -25.6806   31.8480 C   0  0  0  0  0  0  0  0  0  0  0  0
  -12.2568  -25.4148   30.7745 C   0  0  0  0  0  0  0  0  0  0  0  0
  -11.6201  -24.4208   30.0373 C   0  0  0  0  0  0  0  0  0  0  0  0
  -11.9582  -23.8901   28.8120 C   0  0  0  0  0  0  0  0  0  0  0  0
  -13.6079  -25.9712   30.4731 C   0  0  0  0  0  0  0  0  0  0  0  0
  -13.6064  -27.4616   30.3170 C   0  0  0  0  0  0  0  0  0  0  0  0
  -13.4295  -28.1684   31.6528 C   0  0  0  0  0  0  0  0  0  0  0  0
  -12.0139  -28.0949   32.2031 C   0  0  0  0  0  0  0  0  0  0  0  0
  -11.6626  -26.7579   32.8536 C   0  0  0  0  0  0  0  0  0  0  0  0
  -13.1798  -22.5278   25.0379 C   0  0  0  0  0  0  0  0  0  0  0  0
  -10.1295  -21.6579   22.5166 H   0  0  0  0  0  0  0  0  0  0  0  0
  -10.8966  -20.1003   22.6277 H   0  0  0  0  0  0  0  0  0  0  0  0
  -11.0828  -21.0687   21.1457 H   0  0  0  0  0  0  0  0  0  0  0  0
  -12.4586  -22.5078   22.2606 H   0  0  0  0  0  0  0  0  0  0  0  0
  -11.1601  -22.2539   24.3855 H   0  0  0  0  0  0  0  0  0  0  0  0
  -11.5375  -19.8678   24.8490 H   0  0  0  0  0  0  0  0  0  0  0  0
  -13.1992  -20.0014   24.4440 H   0  0  0  0  0  0  0  0  0  0  0  0
  -12.2872  -20.4927   26.9917 H   0  0  0  0  0  0  0  0  0  0  0  0
  -13.8544  -20.8281   26.3506 H   0  0  0  0  0  0  0  0  0  0  0  0
   -9.7472  -21.3307   28.7813 H   0  0  0  0  0  0  0  0  0  0  0  0
   -9.1647  -22.2680   31.0617 H   0  0  0  0  0  0  0  0  0  0  0  0
   -9.6568  -24.7061   32.5420 H   0  0  0  0  0  0  0  0  0  0  0  0
  -12.6902  -24.3747   28.1740 H   0  0  0  0  0  0  0  0  0  0  0  0
  -14.0136  -25.5299   29.5562 H   0  0  0  0  0  0  0  0  0  0  0  0
  -14.3035  -25.6759   31.2694 H   0  0  0  0  0  0  0  0  0  0  0  0
  -14.5751  -27.7673   29.9019 H   0  0  0  0  0  0  0  0  0  0  0  0
  -12.8430  -27.7899   29.6007 H   0  0  0  0  0  0  0  0  0  0  0  0
  -14.1556  -27.8047   32.3899 H   0  0  0  0  0  0  0  0  0  0  0  0
  -13.6663  -29.2288   31.4941 H   0  0  0  0  0  0  0  0  0  0  0  0
  -11.3289  -28.3633   31.3982 H   0  0  0  0  0  0  0  0  0  0  0  0
  -11.9164  -28.8707   32.9735 H   0  0  0  0  0  0  0  0  0  0  0  0
  -10.7756  -26.8984   33.4737 H   0  0  0  0  0  0  0  0  0  0  0  0
  -12.4938  -26.5118   33.5085 H   0  0  0  0  0  0  0  0  0  0  0  0
  -13.2561  -23.5872   24.8030 H   0  0  0  0  0  0  0  0  0  0  0  0
  -14.2308  -22.1922   24.9496 H   0  0  0  0  0  0  0  0  0  0  0  0
  1  2  1  0
  2  3  1  0
  3  4  1  0
  4  5  1  0
  5  6  1  0
  6  7  1  0
  7  8  2  0
  7  9  1  0
  9 10  2  0
 10 11  1  0
 11 12  2  0
 12 13  1  0
 13 14  1  0
 14 15  2  0
 15 16  1  0
 16 17  2  0
 15 18  1  0
 18 19  1  0
 19 20  1  0
 20 21  1  0
 21 22  1  0
  6 23  1  0
 23  3  1  0
 17  9  1  0
 16 12  1  0
 22 14  1  0
  1 24  1  0
  1 25  1  0
  1 26  1  0
  2 27  1  0
  3 28  1  0
  4 29  1  0
  4 30  1  0
  5 31  1  0
  5 32  1  0
 10 33  1  0
 11 34  1  0
 13 35  1  0
 17 36  1  0
 18 37  1  0
 18 38  1  0
 19 39  1  0
 19 40  1  0
 20 41  1  0
 20 42  1  0
 21 43  1  0
 21 44  1  0
 22 45  1  0
 22 46  1  0
 23 47  1  0
 23 48  1  0
M  END
>  <Energy>  (47) 
146.77662661987787

>  <compound_id>  (47) 
51699

>  <target_id>  (47) 
1

>  <reference_id>  (47) 
3

>  <inspiration_ids>  (47) 
[3, 39]

>  <energy_score>  (47) 
62.801279012644784

>  <distance_score>  (47) 
3.294667123861563

>  <path>  (47) 
/opt/xchem-fragalysis-2/maxwin/BulkDock/SCRATCH/511021/C51699-P3/C51699-P3.minimised.mol

>  <scratch_subdir>  (47) 
/opt/xchem-fragalysis-2/maxwin/BulkDock/SCRATCH/511021/C51699-P3

>  <fragmenstein_runtime>  (47) 
14.311424016952515

>  <fragmenstein_outcome>  (47) 
too moved

>  <fragmenstein_mode>  (47) 
expansion

>  <fragmenstein_error>  (47) 


$$$$
C51699-P39
     RDKit          3D

 48 51  0  0  0  0  0  0  0  0999 V2000
  -15.6788  -25.9767   25.2710 C   0  0  0  0  0  0  0  0  0  0  0  0
  -14.6353  -26.3449   26.2186 N   0  0  0  0  0  0  0  0  0  0  0  0
  -13.2905  -26.0372   25.7090 C   0  0  0  0  0  0  0  0  0  0  0  0
  -13.0047  -24.5738   25.7096 C   0  0  0  0  0  0  0  0  0  0  0  0
  -11.6674  -24.6006   26.3636 C   0  0  0  0  0  0  0  0  0  0  0  0
  -11.8324  -25.4294   27.6249 N   0  0  0  0  0  0  0  0  0  0  0  0
  -10.7186  -25.2576   28.4789 C   0  0  0  0  0  0  0  0  0  0  0  0
   -9.6921  -25.8676   28.5530 O   0  0  0  0  0  0  0  0  0  0  0  0
  -11.0720  -24.1821   29.4225 C   0  0  0  0  0  0  0  0  0  0  0  0
  -11.1898  -22.8871   28.9215 C   0  0  0  0  0  0  0  0  0  0  0  0
  -12.0889  -22.0111   29.4753 C   0  0  0  0  0  0  0  0  0  0  0  0
  -12.8796  -22.5147   30.4977 C   0  0  0  0  0  0  0  0  0  0  0  0
  -14.0775  -22.0784   31.0053 N   0  0  0  0  0  0  0  0  0  0  0  0
  -14.2890  -22.6161   32.2086 C   0  0  0  0  0  0  0  0  0  0  0  0
  -13.2909  -23.5366   32.3973 C   0  0  0  0  0  0  0  0  0  0  0  0
  -12.5677  -23.6764   31.1946 C   0  0  0  0  0  0  0  0  0  0  0  0
  -11.6196  -24.5529   30.6566 C   0  0  0  0  0  0  0  0  0  0  0  0
  -12.9608  -23.9083   33.7651 C   0  0  0  0  0  0  0  0  0  0  0  0
  -12.3635  -22.6187   34.3325 C   0  0  0  0  0  0  0  0  0  0  0  0
  -12.9732  -21.2136   34.0904 C   0  0  0  0  0  0  0  0  0  0  0  0
  -14.5042  -21.0402   34.0189 C   0  0  0  0  0  0  0  0  0  0  0  0
  -15.2445  -22.0650   33.1759 C   0  0  0  0  0  0  0  0  0  0  0  0
  -12.1327  -26.4724   26.6337 C   0  0  0  0  0  0  0  0  0  0  0  0
  -15.6938  -24.9003   25.0740 H   0  0  0  0  0  0  0  0  0  0  0  0
  -16.6545  -26.2545   25.6812 H   0  0  0  0  0  0  0  0  0  0  0  0
  -15.5575  -26.5107   24.3230 H   0  0  0  0  0  0  0  0  0  0  0  0
  -14.7765  -25.8455   27.0946 H   0  0  0  0  0  0  0  0  0  0  0  0
  -13.1463  -26.4922   24.7290 H   0  0  0  0  0  0  0  0  0  0  0  0
  -13.0867  -24.0207   24.7810 H   0  0  0  0  0  0  0  0  0  0  0  0
  -13.6505  -24.0658   26.3930 H   0  0  0  0  0  0  0  0  0  0  0  0
  -11.4280  -23.5721   26.6106 H   0  0  0  0  0  0  0  0  0  0  0  0
  -10.8299  -24.9074   25.7205 H   0  0  0  0  0  0  0  0  0  0  0  0
  -10.6161  -22.5675   28.0630 H   0  0  0  0  0  0  0  0  0  0  0  0
  -12.2324  -21.0364   29.0394 H   0  0  0  0  0  0  0  0  0  0  0  0
  -14.6844  -21.3629   30.6491 H   0  0  0  0  0  0  0  0  0  0  0  0
  -11.4505  -25.5327   31.0890 H   0  0  0  0  0  0  0  0  0  0  0  0
  -13.8481  -24.2215   34.3215 H   0  0  0  0  0  0  0  0  0  0  0  0
  -12.2214  -24.7123   33.8079 H   0  0  0  0  0  0  0  0  0  0  0  0
  -12.1677  -22.7364   35.3891 H   0  0  0  0  0  0  0  0  0  0  0  0
  -11.4057  -22.5780   33.8146 H   0  0  0  0  0  0  0  0  0  0  0  0
  -12.5345  -20.8478   33.1555 H   0  0  0  0  0  0  0  0  0  0  0  0
  -12.5755  -20.5113   34.8343 H   0  0  0  0  0  0  0  0  0  0  0  0
  -14.7065  -20.0417   33.6121 H   0  0  0  0  0  0  0  0  0  0  0  0
  -14.9684  -21.0201   35.0035 H   0  0  0  0  0  0  0  0  0  0  0  0
  -16.1063  -21.6025   32.6810 H   0  0  0  0  0  0  0  0  0  0  0  0
  -15.6468  -22.8607   33.8135 H   0  0  0  0  0  0  0  0  0  0  0  0
  -11.2288  -26.8368   26.1159 H   0  0  0  0  0  0  0  0  0  0  0  0
  -12.4447  -27.3110   27.2673 H   0  0  0  0  0  0  0  0  0  0  0  0
  1  2  1  0
  2  3  1  0
  3  4  1  0
  4  5  1  0
  5  6  1  0
  6  7  1  0
  7  8  2  0
  7  9  1  0
  9 10  2  0
 10 11  1  0
 11 12  2  0
 12 13  1  0
 13 14  1  0
 14 15  2  0
 15 16  1  0
 16 17  2  0
 15 18  1  0
 18 19  1  0
 19 20  1  0
 20 21  1  0
 21 22  1  0
  6 23  1  0
 23  3  1  0
 17  9  1  0
 16 12  1  0
 22 14  1  0
  1 24  1  0
  1 25  1  0
  1 26  1  0
  2 27  1  0
  3 28  1  0
  4 29  1  0
  4 30  1  0
  5 31  1  0
  5 32  1  0
 10 33  1  0
 11 34  1  0
 13 35  1  0
 17 36  1  0
 18 37  1  0
 18 38  1  0
 19 39  1  0
 19 40  1  0
 20 41  1  0
 20 42  1  0
 21 43  1  0
 21 44  1  0
 22 45  1  0
 22 46  1  0
 23 47  1  0
 23 48  1  0
M  END
>  <Energy>  (48) 
164.01729035841109

>  <compound_id>  (48) 
51699

>  <target_id>  (48) 
1

>  <reference_id>  (48) 
39

>  <inspiration_ids>  (48) 
[3, 39]

>  <energy_score>  (48) 
85.15185308888147

>  <distance_score>  (48) 
4.18442396504215

>  <path>  (48) 
/opt/xchem-fragalysis-2/maxwin/BulkDock/SCRATCH/511021/C51699-P39/C51699-P39.minimised.mol

>  <scratch_subdir>  (48) 
/opt/xchem-fragalysis-2/maxwin/BulkDock/SCRATCH/511021/C51699-P39

>  <fragmenstein_runtime>  (48) 
16.508058071136475

>  <fragmenstein_outcome>  (48) 
too moved

>  <fragmenstein_mode>  (48) 
expansion

>  <fragmenstein_error>  (48) 


$$$$
C51700-P3
     RDKit          3D

 45 48  0  0  0  0  0  0  0  0999 V2000
  -12.6195  -24.5662   28.7438 N   0  0  0  0  0  0  0  0  0  0  0  0
  -12.9524  -24.0590   27.4099 C   0  0  0  0  0  0  0  0  0  0  0  0
  -12.0592  -22.8738   26.8823 C   0  0  0  0  0  0  0  0  0  0  0  0
  -12.4471  -22.6192   25.4351 C   0  0  0  0  0  0  0  0  0  0  0  0
  -13.3215  -21.4817   25.6681 C   0  0  0  0  0  0  0  0  0  0  0  0
  -12.4722  -20.9347   26.7647 C   0  0  0  0  0  0  0  0  0  0  0  0
  -12.0557  -21.7484   27.9360 N   0  0  0  0  0  0  0  0  0  0  0  0
  -10.9783  -21.1121   28.6098 C   0  0  0  0  0  0  0  0  0  0  0  0
   -9.7945  -21.2247   28.4654 O   0  0  0  0  0  0  0  0  0  0  0  0
  -11.4340  -20.2477   29.7327 C   0  0  0  0  0  0  0  0  0  0  0  0
  -10.8486  -19.0689   30.1186 C   0  0  0  0  0  0  0  0  0  0  0  0
  -10.5080  -18.8290   31.4895 C   0  0  0  0  0  0  0  0  0  0  0  0
  -10.3884  -20.0379   32.1892 C   0  0  0  0  0  0  0  0  0  0  0  0
   -9.4238  -20.5471   33.0229 N   0  0  0  0  0  0  0  0  0  0  0  0
   -9.2917  -21.8699   32.7237 C   0  0  0  0  0  0  0  0  0  0  0  0
  -10.3319  -22.2604   31.9282 C   0  0  0  0  0  0  0  0  0  0  0  0
  -11.0997  -21.1387   31.7390 C   0  0  0  0  0  0  0  0  0  0  0  0
  -12.0436  -20.8401   30.7890 C   0  0  0  0  0  0  0  0  0  0  0  0
  -10.3767  -23.4922   31.1250 C   0  0  0  0  0  0  0  0  0  0  0  0
   -8.9548  -23.9425   30.9703 C   0  0  0  0  0  0  0  0  0  0  0  0
   -8.3138  -24.0416   32.3347 C   0  0  0  0  0  0  0  0  0  0  0  0
   -8.0536  -22.6294   32.8836 C   0  0  0  0  0  0  0  0  0  0  0  0
  -13.1043  -25.4478   28.9009 H   0  0  0  0  0  0  0  0  0  0  0  0
  -11.6205  -24.7622   28.7767 H   0  0  0  0  0  0  0  0  0  0  0  0
  -12.8711  -24.8990   26.7092 H   0  0  0  0  0  0  0  0  0  0  0  0
  -14.0031  -23.7491   27.4249 H   0  0  0  0  0  0  0  0  0  0  0  0
  -11.0268  -23.2517   26.8786 H   0  0  0  0  0  0  0  0  0  0  0  0
  -11.5784  -22.3638   24.8175 H   0  0  0  0  0  0  0  0  0  0  0  0
  -13.0185  -23.4197   24.9692 H   0  0  0  0  0  0  0  0  0  0  0  0
  -13.4056  -20.8238   24.8015 H   0  0  0  0  0  0  0  0  0  0  0  0
  -14.3130  -21.8132   25.9754 H   0  0  0  0  0  0  0  0  0  0  0  0
  -11.6039  -20.4242   26.3540 H   0  0  0  0  0  0  0  0  0  0  0  0
  -13.0013  -20.1116   27.2310 H   0  0  0  0  0  0  0  0  0  0  0  0
  -10.4698  -18.4151   29.3600 H   0  0  0  0  0  0  0  0  0  0  0  0
   -9.9505  -17.9392   31.7511 H   0  0  0  0  0  0  0  0  0  0  0  0
   -8.6377  -20.0182   33.3569 H   0  0  0  0  0  0  0  0  0  0  0  0
  -12.7174  -20.1392   31.3085 H   0  0  0  0  0  0  0  0  0  0  0  0
  -10.9704  -24.2883   31.5721 H   0  0  0  0  0  0  0  0  0  0  0  0
  -10.7904  -23.3047   30.1361 H   0  0  0  0  0  0  0  0  0  0  0  0
   -8.4005  -23.2192   30.3800 H   0  0  0  0  0  0  0  0  0  0  0  0
   -8.9664  -24.8816   30.4592 H   0  0  0  0  0  0  0  0  0  0  0  0
   -7.3883  -24.6073   32.3007 H   0  0  0  0  0  0  0  0  0  0  0  0
   -9.0256  -24.5968   32.9579 H   0  0  0  0  0  0  0  0  0  0  0  0
   -7.7081  -22.5542   33.9082 H   0  0  0  0  0  0  0  0  0  0  0  0
   -7.2826  -22.1561   32.2828 H   0  0  0  0  0  0  0  0  0  0  0  0
  1  2  1  0
  2  3  1  0
  3  4  1  0
  4  5  1  0
  5  6  1  0
  6  7  1  0
  7  8  1  0
  8  9  2  0
  8 10  1  0
 10 11  2  0
 11 12  1  0
 12 13  2  0
 13 14  1  0
 14 15  1  0
 15 16  2  0
 16 17  1  0
 17 18  2  0
 16 19  1  0
 19 20  1  0
 20 21  1  0
 21 22  1  0
  7  3  1  0
 18 10  1  0
 17 13  1  0
 22 15  1  0
  1 23  1  0
  1 24  1  0
  2 25  1  0
  2 26  1  0
  3 27  1  0
  4 28  1  0
  4 29  1  0
  5 30  1  0
  5 31  1  0
  6 32  1  0
  6 33  1  0
 11 34  1  0
 12 35  1  0
 14 36  1  0
 18 37  1  0
 19 38  1  0
 19 39  1  0
 20 40  1  0
 20 41  1  0
 21 42  1  0
 21 43  1  0
 22 44  1  0
 22 45  1  0
M  END
>  <Energy>  (49) 
223.28776673525005

>  <compound_id>  (49) 
51700

>  <target_id>  (49) 
1

>  <reference_id>  (49) 
3

>  <inspiration_ids>  (49) 
[3, 39]

>  <energy_score>  (49) 
143.22135111811443

>  <distance_score>  (49) 
2.4583286041197545

>  <path>  (49) 
/opt/xchem-fragalysis-2/maxwin/BulkDock/SCRATCH/511021/C51700-P3/C51700-P3.minimised.mol

>  <scratch_subdir>  (49) 
/opt/xchem-fragalysis-2/maxwin/BulkDock/SCRATCH/511021/C51700-P3

>  <fragmenstein_runtime>  (49) 
13.878737926483154

>  <fragmenstein_outcome>  (49) 
too moved

>  <fragmenstein_mode>  (49) 
expansion

>  <fragmenstein_error>  (49) 


$$$$
C51700-P39
     RDKit          3D

 45 48  0  0  0  0  0  0  0  0999 V2000
  -14.0689  -27.1799   27.5058 N   0  0  0  0  0  0  0  0  0  0  0  0
  -14.7011  -26.5604   26.3388 C   0  0  0  0  0  0  0  0  0  0  0  0
  -13.8014  -25.5524   25.5238 C   0  0  0  0  0  0  0  0  0  0  0  0
  -14.7722  -24.9043   24.5478 C   0  0  0  0  0  0  0  0  0  0  0  0
  -14.1489  -23.5705   24.4038 C   0  0  0  0  0  0  0  0  0  0  0  0
  -12.9727  -23.7976   25.3084 C   0  0  0  0  0  0  0  0  0  0  0  0
  -13.2714  -24.5765   26.5329 N   0  0  0  0  0  0  0  0  0  0  0  0
  -12.1425  -24.6292   27.3508 C   0  0  0  0  0  0  0  0  0  0  0  0
  -11.2489  -25.4264   27.3986 O   0  0  0  0  0  0  0  0  0  0  0  0
  -12.2492  -23.5203   28.3221 C   0  0  0  0  0  0  0  0  0  0  0  0
  -11.5247  -22.3577   28.4734 C   0  0  0  0  0  0  0  0  0  0  0  0
  -11.4967  -21.7273   29.7279 C   0  0  0  0  0  0  0  0  0  0  0  0
  -11.8779  -22.5479   30.7886 C   0  0  0  0  0  0  0  0  0  0  0  0
  -11.4249  -22.6543   32.0887 N   0  0  0  0  0  0  0  0  0  0  0  0
  -11.1252  -23.9942   32.2351 C   0  0  0  0  0  0  0  0  0  0  0  0
  -11.8961  -24.6882   31.3332 C   0  0  0  0  0  0  0  0  0  0  0  0
  -12.5804  -23.7186   30.5665 C   0  0  0  0  0  0  0  0  0  0  0  0
  -13.1222  -23.9294   29.3181 C   0  0  0  0  0  0  0  0  0  0  0  0
  -11.5866  -26.0678   30.8409 C   0  0  0  0  0  0  0  0  0  0  0  0
  -10.3021  -26.6149   31.4258 C   0  0  0  0  0  0  0  0  0  0  0  0
   -9.3049  -25.5349   31.8406 C   0  0  0  0  0  0  0  0  0  0  0  0
   -9.9200  -24.5719   32.8597 C   0  0  0  0  0  0  0  0  0  0  0  0
  -13.0658  -27.2677   27.2989 H   0  0  0  0  0  0  0  0  0  0  0  0
  -14.4321  -28.1220   27.6170 H   0  0  0  0  0  0  0  0  0  0  0  0
  -15.0793  -27.3317   25.6644 H   0  0  0  0  0  0  0  0  0  0  0  0
  -15.5834  -26.0371   26.7275 H   0  0  0  0  0  0  0  0  0  0  0  0
  -12.9873  -26.1334   25.0642 H   0  0  0  0  0  0  0  0  0  0  0  0
  -14.8411  -25.4881   23.6319 H   0  0  0  0  0  0  0  0  0  0  0  0
  -15.7903  -24.7947   24.9397 H   0  0  0  0  0  0  0  0  0  0  0  0
  -13.8640  -23.2956   23.3880 H   0  0  0  0  0  0  0  0  0  0  0  0
  -14.8374  -22.8002   24.7486 H   0  0  0  0  0  0  0  0  0  0  0  0
  -12.0556  -24.2149   24.8721 H   0  0  0  0  0  0  0  0  0  0  0  0
  -12.5158  -22.8604   25.6108 H   0  0  0  0  0  0  0  0  0  0  0  0
  -10.9463  -21.9543   27.6613 H   0  0  0  0  0  0  0  0  0  0  0  0
  -10.8594  -20.8792   29.8871 H   0  0  0  0  0  0  0  0  0  0  0  0
  -10.9032  -21.9199   32.5272 H   0  0  0  0  0  0  0  0  0  0  0  0
  -13.6532  -24.8512   29.1457 H   0  0  0  0  0  0  0  0  0  0  0  0
  -12.4009  -26.7631   31.0226 H   0  0  0  0  0  0  0  0  0  0  0  0
  -11.4526  -26.0518   29.7573 H   0  0  0  0  0  0  0  0  0  0  0  0
   -9.8318  -27.2977   30.7183 H   0  0  0  0  0  0  0  0  0  0  0  0
  -10.5950  -27.2059   32.2862 H   0  0  0  0  0  0  0  0  0  0  0  0
   -9.0118  -25.0036   30.9328 H   0  0  0  0  0  0  0  0  0  0  0  0
   -8.3966  -25.9660   32.2595 H   0  0  0  0  0  0  0  0  0  0  0  0
   -9.1945  -23.7931   33.0928 H   0  0  0  0  0  0  0  0  0  0  0  0
  -10.1862  -25.1197   33.7689 H   0  0  0  0  0  0  0  0  0  0  0  0
  1  2  1  0
  2  3  1  0
  3  4  1  0
  4  5  1  0
  5  6  1  0
  6  7  1  0
  7  8  1  0
  8  9  2  0
  8 10  1  0
 10 11  2  0
 11 12  1  0
 12 13  2  0
 13 14  1  0
 14 15  1  0
 15 16  2  0
 16 17  1  0
 17 18  2  0
 16 19  1  0
 19 20  1  0
 20 21  1  0
 21 22  1  0
  7  3  1  0
 18 10  1  0
 17 13  1  0
 22 15  1  0
  1 23  1  0
  1 24  1  0
  2 25  1  0
  2 26  1  0
  3 27  1  0
  4 28  1  0
  4 29  1  0
  5 30  1  0
  5 31  1  0
  6 32  1  0
  6 33  1  0
 11 34  1  0
 12 35  1  0
 14 36  1  0
 18 37  1  0
 19 38  1  0
 19 39  1  0
 20 40  1  0
 20 41  1  0
 21 42  1  0
 21 43  1  0
 22 44  1  0
 22 45  1  0
M  END
>  <Energy>  (50) 
184.09457005998206

>  <compound_id>  (50) 
51700

>  <target_id>  (50) 
1

>  <reference_id>  (50) 
39

>  <inspiration_ids>  (50) 
[3, 39]

>  <energy_score>  (50) 
104.028154442843

>  <distance_score>  (50) 
3.1999737754510362

>  <path>  (50) 
/opt/xchem-fragalysis-2/maxwin/BulkDock/SCRATCH/511021/C51700-P39/C51700-P39.minimised.mol

>  <scratch_subdir>  (50) 
/opt/xchem-fragalysis-2/maxwin/BulkDock/SCRATCH/511021/C51700-P39

>  <fragmenstein_runtime>  (50) 
15.645210266113281

>  <fragmenstein_outcome>  (50) 
too moved

>  <fragmenstein_mode>  (50) 
expansion

>  <fragmenstein_error>  (50) 


$$$$
C51702-P3
     RDKit          3D

 47 51  0  0  0  0  0  0  0  0999 V2000
  -12.9500  -25.9749   26.4753 O   0  0  0  0  0  0  0  0  0  0  0  0
  -13.1262  -25.0963   27.2784 C   0  0  0  0  0  0  0  0  0  0  0  0
  -12.8311  -25.4244   28.6978 C   0  0  0  0  0  0  0  0  0  0  0  0
  -11.6404  -25.0351   29.2882 C   0  0  0  0  0  0  0  0  0  0  0  0
  -11.3175  -25.3591   30.6040 C   0  0  0  0  0  0  0  0  0  0  0  0
  -12.2108  -26.1879   31.2831 C   0  0  0  0  0  0  0  0  0  0  0  0
  -12.0999  -26.7884   32.5215 N   0  0  0  0  0  0  0  0  0  0  0  0
  -13.2195  -27.5241   32.7712 C   0  0  0  0  0  0  0  0  0  0  0  0
  -14.1020  -27.3405   31.7279 C   0  0  0  0  0  0  0  0  0  0  0  0
  -13.4388  -26.5734   30.7364 C   0  0  0  0  0  0  0  0  0  0  0  0
  -13.7644  -26.1659   29.4267 C   0  0  0  0  0  0  0  0  0  0  0  0
  -15.4792  -27.9030   31.7389 C   0  0  0  0  0  0  0  0  0  0  0  0
  -15.6406  -28.9712   32.8350 C   0  0  0  0  0  0  0  0  0  0  0  0
  -14.9489  -28.5841   34.1550 C   0  0  0  0  0  0  0  0  0  0  0  0
  -13.4410  -28.3906   33.9577 C   0  0  0  0  0  0  0  0  0  0  0  0
  -13.6719  -23.7887   27.1186 N   0  0  0  0  0  0  0  0  0  0  0  0
  -14.2994  -23.1364   25.9366 C   0  0  0  0  0  0  0  0  0  0  0  0
  -13.5991  -22.3173   24.9053 C   0  0  0  0  0  0  0  0  0  0  0  0
  -12.7709  -21.5928   25.8514 C   0  0  0  0  0  0  0  0  0  0  0  0
  -12.5119  -22.7484   26.7947 C   0  0  0  0  0  0  0  0  0  0  0  0
  -11.9846  -22.1891   28.1227 C   0  0  0  0  0  0  0  0  0  0  0  0
  -11.5053  -20.7615   28.3404 C   0  0  0  0  0  0  0  0  0  0  0  0
  -10.5260  -21.8806   28.2928 C   0  0  0  0  0  0  0  0  0  0  0  0
  -10.9616  -24.4423   28.7028 H   0  0  0  0  0  0  0  0  0  0  0  0
  -10.3883  -25.0200   31.0526 H   0  0  0  0  0  0  0  0  0  0  0  0
  -11.2896  -26.7330   33.1261 H   0  0  0  0  0  0  0  0  0  0  0  0
  -14.7031  -26.4686   28.9718 H   0  0  0  0  0  0  0  0  0  0  0  0
  -15.7303  -28.3367   30.7646 H   0  0  0  0  0  0  0  0  0  0  0  0
  -16.1874  -27.0864   31.9261 H   0  0  0  0  0  0  0  0  0  0  0  0
  -15.2145  -29.9188   32.4799 H   0  0  0  0  0  0  0  0  0  0  0  0
  -16.7070  -29.1518   33.0118 H   0  0  0  0  0  0  0  0  0  0  0  0
  -15.1225  -29.3623   34.9068 H   0  0  0  0  0  0  0  0  0  0  0  0
  -15.3973  -27.6586   34.5388 H   0  0  0  0  0  0  0  0  0  0  0  0
  -12.9695  -29.3640   33.7811 H   0  0  0  0  0  0  0  0  0  0  0  0
  -12.9964  -27.9795   34.8642 H   0  0  0  0  0  0  0  0  0  0  0  0
  -15.1441  -22.5717   26.3504 H   0  0  0  0  0  0  0  0  0  0  0  0
  -14.7867  -23.9675   25.4099 H   0  0  0  0  0  0  0  0  0  0  0  0
  -13.0213  -22.9044   24.1977 H   0  0  0  0  0  0  0  0  0  0  0  0
  -14.2770  -21.6628   24.3592 H   0  0  0  0  0  0  0  0  0  0  0  0
  -13.3124  -20.7762   26.3270 H   0  0  0  0  0  0  0  0  0  0  0  0
  -11.8726  -21.1870   25.3894 H   0  0  0  0  0  0  0  0  0  0  0  0
  -11.6980  -23.3592   26.3680 H   0  0  0  0  0  0  0  0  0  0  0  0
  -12.4075  -22.6994   28.9662 H   0  0  0  0  0  0  0  0  0  0  0  0
  -11.4830  -20.0498   27.5280 H   0  0  0  0  0  0  0  0  0  0  0  0
  -11.6737  -20.2965   29.3067 H   0  0  0  0  0  0  0  0  0  0  0  0
  -10.0532  -22.1521   29.2293 H   0  0  0  0  0  0  0  0  0  0  0  0
   -9.9149  -22.0053   27.4154 H   0  0  0  0  0  0  0  0  0  0  0  0
  1  2  2  0
  2  3  1  0
  3  4  2  0
  4  5  1  0
  5  6  2  0
  6  7  1  0
  7  8  1  0
  8  9  2  0
  9 10  1  0
 10 11  2  0
  9 12  1  0
 12 13  1  0
 13 14  1  0
 14 15  1  0
  2 16  1  0
 16 17  1  0
 17 18  1  0
 18 19  1  0
 19 20  1  0
 20 21  1  0
 21 22  1  0
 22 23  1  0
 11  3  1  0
 20 16  1  0
 23 21  1  0
 10  6  1  0
 15  8  1  0
  4 24  1  0
  5 25  1  0
  7 26  1  0
 11 27  1  0
 12 28  1  0
 12 29  1  0
 13 30  1  0
 13 31  1  0
 14 32  1  0
 14 33  1  0
 15 34  1  0
 15 35  1  0
 17 36  1  0
 17 37  1  0
 18 38  1  0
 18 39  1  0
 19 40  1  0
 19 41  1  0
 20 42  1  0
 21 43  1  0
 22 44  1  0
 22 45  1  0
 23 46  1  0
 23 47  1  0
M  END
>  <Energy>  (51) 
126.12883930529033

>  <compound_id>  (51) 
51702

>  <target_id>  (51) 
1

>  <reference_id>  (51) 
3

>  <inspiration_ids>  (51) 
[3, 39]

>  <energy_score>  (51) 
50.074876524942326

>  <distance_score>  (51) 
4.375507199033873

>  <path>  (51) 
/opt/xchem-fragalysis-2/maxwin/BulkDock/SCRATCH/511021/C51702-P3/C51702-P3.minimised.mol

>  <scratch_subdir>  (51) 
/opt/xchem-fragalysis-2/maxwin/BulkDock/SCRATCH/511021/C51702-P3

>  <fragmenstein_runtime>  (51) 
102.65515661239624

>  <fragmenstein_outcome>  (51) 
too moved

>  <fragmenstein_mode>  (51) 
expansion

>  <fragmenstein_error>  (51) 


$$$$
C51702-P39
     RDKit          3D

 47 51  0  0  0  0  0  0  0  0999 V2000
  -13.3298  -28.5245   27.8858 O   0  0  0  0  0  0  0  0  0  0  0  0
  -13.1621  -27.3306   27.8871 C   0  0  0  0  0  0  0  0  0  0  0  0
  -11.9486  -26.8985   28.5966 C   0  0  0  0  0  0  0  0  0  0  0  0
  -10.7472  -26.4635   28.0541 C   0  0  0  0  0  0  0  0  0  0  0  0
   -9.7082  -26.0133   28.8921 C   0  0  0  0  0  0  0  0  0  0  0  0
  -10.0541  -25.7929   30.2192 C   0  0  0  0  0  0  0  0  0  0  0  0
   -9.4798  -25.2388   31.3407 N   0  0  0  0  0  0  0  0  0  0  0  0
  -10.5029  -24.5347   31.9076 C   0  0  0  0  0  0  0  0  0  0  0  0
  -11.6585  -24.9690   31.3465 C   0  0  0  0  0  0  0  0  0  0  0  0
  -11.3061  -26.1418   30.6858 C   0  0  0  0  0  0  0  0  0  0  0  0
  -12.0203  -27.0490   29.9563 C   0  0  0  0  0  0  0  0  0  0  0  0
  -12.8556  -24.1116   31.3671 C   0  0  0  0  0  0  0  0  0  0  0  0
  -12.4556  -22.6418   31.2428 C   0  0  0  0  0  0  0  0  0  0  0  0
  -11.3540  -22.2283   32.2206 C   0  0  0  0  0  0  0  0  0  0  0  0
  -10.5138  -23.3901   32.7881 C   0  0  0  0  0  0  0  0  0  0  0  0
  -14.0015  -26.2636   27.3930 N   0  0  0  0  0  0  0  0  0  0  0  0
  -15.3962  -26.2977   26.8253 C   0  0  0  0  0  0  0  0  0  0  0  0
  -15.8284  -25.5873   25.5816 C   0  0  0  0  0  0  0  0  0  0  0  0
  -14.6853  -26.0631   24.8079 C   0  0  0  0  0  0  0  0  0  0  0  0
  -13.6447  -25.9412   25.9149 C   0  0  0  0  0  0  0  0  0  0  0  0
  -13.1077  -24.4843   25.8853 C   0  0  0  0  0  0  0  0  0  0  0  0
  -12.2166  -23.8474   26.9332 C   0  0  0  0  0  0  0  0  0  0  0  0
  -11.6486  -24.2536   25.6119 C   0  0  0  0  0  0  0  0  0  0  0  0
  -10.5863  -26.5394   26.9873 H   0  0  0  0  0  0  0  0  0  0  0  0
   -8.7481  -25.7430   28.5080 H   0  0  0  0  0  0  0  0  0  0  0  0
   -8.4954  -25.1135   31.5139 H   0  0  0  0  0  0  0  0  0  0  0  0
  -12.7200  -27.6784   30.4488 H   0  0  0  0  0  0  0  0  0  0  0  0
  -13.4067  -24.2482   32.2993 H   0  0  0  0  0  0  0  0  0  0  0  0
  -13.4483  -24.3209   30.4788 H   0  0  0  0  0  0  0  0  0  0  0  0
  -13.3416  -22.0143   31.3807 H   0  0  0  0  0  0  0  0  0  0  0  0
  -12.0974  -22.4541   30.2209 H   0  0  0  0  0  0  0  0  0  0  0  0
  -11.8227  -21.6903   33.0543 H   0  0  0  0  0  0  0  0  0  0  0  0
  -10.7086  -21.4957   31.7246 H   0  0  0  0  0  0  0  0  0  0  0  0
  -11.0570  -23.7340   33.6736 H   0  0  0  0  0  0  0  0  0  0  0  0
   -9.4929  -23.1213   33.0421 H   0  0  0  0  0  0  0  0  0  0  0  0
  -16.0442  -25.9799   27.6460 H   0  0  0  0  0  0  0  0  0  0  0  0
  -15.6370  -27.3713   26.7293 H   0  0  0  0  0  0  0  0  0  0  0  0
  -16.7911  -25.9393   25.2008 H   0  0  0  0  0  0  0  0  0  0  0  0
  -15.8671  -24.5039   25.6658 H   0  0  0  0  0  0  0  0  0  0  0  0
  -14.5025  -25.4520   23.9252 H   0  0  0  0  0  0  0  0  0  0  0  0
  -14.8550  -27.0911   24.4951 H   0  0  0  0  0  0  0  0  0  0  0  0
  -12.7890  -26.5603   25.6346 H   0  0  0  0  0  0  0  0  0  0  0  0
  -13.7707  -23.8054   25.3565 H   0  0  0  0  0  0  0  0  0  0  0  0
  -12.2563  -22.7831   27.1191 H   0  0  0  0  0  0  0  0  0  0  0  0
  -12.0128  -24.3788   27.8436 H   0  0  0  0  0  0  0  0  0  0  0  0
  -10.9952  -25.1042   25.5353 H   0  0  0  0  0  0  0  0  0  0  0  0
  -11.4369  -23.4856   24.8800 H   0  0  0  0  0  0  0  0  0  0  0  0
  1  2  2  0
  2  3  1  0
  3  4  2  0
  4  5  1  0
  5  6  2  0
  6  7  1  0
  7  8  1  0
  8  9  2  0
  9 10  1  0
 10 11  2  0
  9 12  1  0
 12 13  1  0
 13 14  1  0
 14 15  1  0
  2 16  1  0
 16 17  1  0
 17 18  1  0
 18 19  1  0
 19 20  1  0
 20 21  1  0
 21 22  1  0
 22 23  1  0
 11  3  1  0
 20 16  1  0
 23 21  1  0
 10  6  1  0
 15  8  1  0
  4 24  1  0
  5 25  1  0
  7 26  1  0
 11 27  1  0
 12 28  1  0
 12 29  1  0
 13 30  1  0
 13 31  1  0
 14 32  1  0
 14 33  1  0
 15 34  1  0
 15 35  1  0
 17 36  1  0
 17 37  1  0
 18 38  1  0
 18 39  1  0
 19 40  1  0
 19 41  1  0
 20 42  1  0
 21 43  1  0
 22 44  1  0
 22 45  1  0
 23 46  1  0
 23 47  1  0
M  END
>  <Energy>  (52) 
192.81324441636764

>  <compound_id>  (52) 
51702

>  <target_id>  (52) 
1

>  <reference_id>  (52) 
39

>  <inspiration_ids>  (52) 
[3, 39]

>  <energy_score>  (52) 
116.759281636021

>  <distance_score>  (52) 
4.576372864061588

>  <path>  (52) 
/opt/xchem-fragalysis-2/maxwin/BulkDock/SCRATCH/511021/C51702-P39/C51702-P39.minimised.mol

>  <scratch_subdir>  (52) 
/opt/xchem-fragalysis-2/maxwin/BulkDock/SCRATCH/511021/C51702-P39

>  <fragmenstein_runtime>  (52) 
131.39343166351318

>  <fragmenstein_outcome>  (52) 
too moved

>  <fragmenstein_mode>  (52) 
expansion

>  <fragmenstein_error>  (52) 


$$$$
C51703-P3
     RDKit          3D

 45 49  0  0  0  0  0  0  0  0999 V2000
  -12.8985  -23.2024   26.2955 O   0  0  0  0  0  0  0  0  0  0  0  0
  -12.8861  -24.0982   27.0930 C   0  0  0  0  0  0  0  0  0  0  0  0
  -11.9571  -23.9826   28.2678 C   0  0  0  0  0  0  0  0  0  0  0  0
  -11.6269  -25.1052   29.0285 C   0  0  0  0  0  0  0  0  0  0  0  0
  -10.9569  -24.9885   30.2439 C   0  0  0  0  0  0  0  0  0  0  0  0
  -10.5384  -23.7274   30.6462 C   0  0  0  0  0  0  0  0  0  0  0  0
   -9.8200  -23.3360   31.7590 N   0  0  0  0  0  0  0  0  0  0  0  0
  -10.0362  -22.0029   31.9377 C   0  0  0  0  0  0  0  0  0  0  0  0
  -10.6623  -21.5030   30.8162 C   0  0  0  0  0  0  0  0  0  0  0  0
  -10.8900  -22.5826   29.9309 C   0  0  0  0  0  0  0  0  0  0  0  0
  -11.5633  -22.7083   28.6981 C   0  0  0  0  0  0  0  0  0  0  0  0
  -11.2423  -20.1334   30.7686 C   0  0  0  0  0  0  0  0  0  0  0  0
  -10.9757  -19.3191   32.0340 C   0  0  0  0  0  0  0  0  0  0  0  0
  -10.9366  -20.2007   33.2869 C   0  0  0  0  0  0  0  0  0  0  0  0
   -9.8255  -21.2583   33.2005 C   0  0  0  0  0  0  0  0  0  0  0  0
  -13.6954  -25.2702   27.1839 N   0  0  0  0  0  0  0  0  0  0  0  0
  -14.7338  -25.8097   26.2589 C   0  0  0  0  0  0  0  0  0  0  0  0
  -15.9976  -25.0165   26.1033 C   0  0  0  0  0  0  0  0  0  0  0  0
  -16.3558  -25.1175   27.5261 C   0  0  0  0  0  0  0  0  0  0  0  0
  -14.9493  -24.9862   28.0728 C   0  0  0  0  0  0  0  0  0  0  0  0
  -14.7475  -25.6846   29.3889 C   0  0  0  0  0  0  0  0  0  0  0  0
  -14.7502  -25.1539   30.5944 N   0  0  0  0  0  0  0  0  0  0  0  0
  -14.3344  -26.1377   31.4561 N   0  0  0  0  0  0  0  0  0  0  0  0
  -14.0893  -27.2630   30.8029 N   0  0  0  0  0  0  0  0  0  0  0  0
  -14.3861  -26.9953   29.5237 N   0  0  0  0  0  0  0  0  0  0  0  0
  -11.9046  -26.1006   28.6993 H   0  0  0  0  0  0  0  0  0  0  0  0
  -10.8083  -25.8545   30.8644 H   0  0  0  0  0  0  0  0  0  0  0  0
   -9.4044  -23.9610   32.4428 H   0  0  0  0  0  0  0  0  0  0  0  0
  -11.8653  -21.8204   28.1485 H   0  0  0  0  0  0  0  0  0  0  0  0
  -12.3095  -20.2908   30.7347 H   0  0  0  0  0  0  0  0  0  0  0  0
  -10.9515  -19.5860   29.8672 H   0  0  0  0  0  0  0  0  0  0  0  0
  -11.7525  -18.5614   32.1612 H   0  0  0  0  0  0  0  0  0  0  0  0
  -10.0357  -18.7795   31.9124 H   0  0  0  0  0  0  0  0  0  0  0  0
  -11.8972  -20.6887   33.3915 H   0  0  0  0  0  0  0  0  0  0  0  0
  -10.8707  -19.5990   34.1867 H   0  0  0  0  0  0  0  0  0  0  0  0
   -8.8397  -20.7834   33.1830 H   0  0  0  0  0  0  0  0  0  0  0  0
   -9.8686  -21.9226   34.0684 H   0  0  0  0  0  0  0  0  0  0  0  0
  -14.9103  -26.8679   26.5132 H   0  0  0  0  0  0  0  0  0  0  0  0
  -14.2399  -25.8337   25.2786 H   0  0  0  0  0  0  0  0  0  0  0  0
  -16.7266  -25.4814   25.4356 H   0  0  0  0  0  0  0  0  0  0  0  0
  -15.8066  -23.9857   25.7875 H   0  0  0  0  0  0  0  0  0  0  0  0
  -17.0301  -24.3255   27.8663 H   0  0  0  0  0  0  0  0  0  0  0  0
  -16.8164  -26.0832   27.7705 H   0  0  0  0  0  0  0  0  0  0  0  0
  -14.8639  -23.9191   28.3231 H   0  0  0  0  0  0  0  0  0  0  0  0
  -14.2537  -27.7104   28.8203 H   0  0  0  0  0  0  0  0  0  0  0  0
  1  2  2  0
  2  3  1  0
  3  4  2  0
  4  5  1  0
  5  6  2  0
  6  7  1  0
  7  8  1  0
  8  9  2  0
  9 10  1  0
 10 11  2  0
  9 12  1  0
 12 13  1  0
 13 14  1  0
 14 15  1  0
  2 16  1  0
 16 17  1  0
 17 18  1  0
 18 19  1  0
 19 20  1  0
 20 21  1  0
 21 22  2  0
 22 23  1  0
 23 24  2  0
 24 25  1  0
 11  3  1  0
 20 16  1  0
 25 21  1  0
 10  6  1  0
 15  8  1  0
  4 26  1  0
  5 27  1  0
  7 28  1  0
 11 29  1  0
 12 30  1  0
 12 31  1  0
 13 32  1  0
 13 33  1  0
 14 34  1  0
 14 35  1  0
 15 36  1  0
 15 37  1  0
 17 38  1  0
 17 39  1  0
 18 40  1  0
 18 41  1  0
 19 42  1  0
 19 43  1  0
 20 44  1  0
 25 45  1  0
M  END
>  <Energy>  (53) 
94.159654715377457

>  <compound_id>  (53) 
51703

>  <target_id>  (53) 
1

>  <reference_id>  (53) 
3

>  <inspiration_ids>  (53) 
[3, 39]

>  <energy_score>  (53) 
24.037738883553317

>  <distance_score>  (53) 
3.6398726562660935

>  <path>  (53) 
/opt/xchem-fragalysis-2/maxwin/BulkDock/SCRATCH/511021/C51703-P3/C51703-P3.minimised.mol

>  <scratch_subdir>  (53) 
/opt/xchem-fragalysis-2/maxwin/BulkDock/SCRATCH/511021/C51703-P3

>  <fragmenstein_runtime>  (53) 
56.097105264663696

>  <fragmenstein_outcome>  (53) 
too moved

>  <fragmenstein_mode>  (53) 
expansion

>  <fragmenstein_error>  (53) 


$$$$
C51703-P39
     RDKit          3D

 45 49  0  0  0  0  0  0  0  0999 V2000
  -13.9899  -23.5882   29.3389 O   0  0  0  0  0  0  0  0  0  0  0  0
  -12.9521  -23.4167   29.9109 C   0  0  0  0  0  0  0  0  0  0  0  0
  -13.0266  -22.6413   31.2193 C   0  0  0  0  0  0  0  0  0  0  0  0
  -11.9042  -22.0039   31.7401 C   0  0  0  0  0  0  0  0  0  0  0  0
  -11.9956  -21.1726   32.8569 C   0  0  0  0  0  0  0  0  0  0  0  0
  -13.2274  -20.9906   33.4803 C   0  0  0  0  0  0  0  0  0  0  0  0
  -13.5932  -20.0920   34.4612 N   0  0  0  0  0  0  0  0  0  0  0  0
  -14.9597  -20.0282   34.5180 C   0  0  0  0  0  0  0  0  0  0  0  0
  -15.4731  -20.9994   33.6822 C   0  0  0  0  0  0  0  0  0  0  0  0
  -14.3853  -21.5473   32.9602 C   0  0  0  0  0  0  0  0  0  0  0  0
  -14.2675  -22.3534   31.8146 C   0  0  0  0  0  0  0  0  0  0  0  0
  -16.9309  -21.2907   33.5737 C   0  0  0  0  0  0  0  0  0  0  0  0
  -17.7773  -20.1640   34.1946 C   0  0  0  0  0  0  0  0  0  0  0  0
  -17.1853  -19.6219   35.5110 C   0  0  0  0  0  0  0  0  0  0  0  0
  -15.7571  -19.0724   35.3317 C   0  0  0  0  0  0  0  0  0  0  0  0
  -11.6302  -23.7359   29.5262 N   0  0  0  0  0  0  0  0  0  0  0  0
  -11.0903  -24.2848   28.2376 C   0  0  0  0  0  0  0  0  0  0  0  0
  -11.0465  -25.7508   27.9378 C   0  0  0  0  0  0  0  0  0  0  0  0
  -10.3761  -26.0512   29.2069 C   0  0  0  0  0  0  0  0  0  0  0  0
  -11.2597  -25.1533   30.0331 C   0  0  0  0  0  0  0  0  0  0  0  0
  -10.8366  -25.0879   31.4664 C   0  0  0  0  0  0  0  0  0  0  0  0
  -11.6212  -24.8207   32.4888 N   0  0  0  0  0  0  0  0  0  0  0  0
  -10.8580  -24.9136   33.6072 N   0  0  0  0  0  0  0  0  0  0  0  0
   -9.6091  -25.2047   33.2975 N   0  0  0  0  0  0  0  0  0  0  0  0
   -9.6079  -25.3891   31.9744 N   0  0  0  0  0  0  0  0  0  0  0  0
  -10.9509  -22.0672   31.2402 H   0  0  0  0  0  0  0  0  0  0  0  0
  -11.1884  -20.4963   33.0940 H   0  0  0  0  0  0  0  0  0  0  0  0
  -12.9414  -19.4959   34.9558 H   0  0  0  0  0  0  0  0  0  0  0  0
  -15.1899  -22.6452   31.3438 H   0  0  0  0  0  0  0  0  0  0  0  0
  -17.1369  -22.2290   34.1033 H   0  0  0  0  0  0  0  0  0  0  0  0
  -17.2235  -21.4341   32.5276 H   0  0  0  0  0  0  0  0  0  0  0  0
  -18.7965  -20.5283   34.3674 H   0  0  0  0  0  0  0  0  0  0  0  0
  -17.8569  -19.3420   33.4751 H   0  0  0  0  0  0  0  0  0  0  0  0
  -17.1757  -20.4317   36.2519 H   0  0  0  0  0  0  0  0  0  0  0  0
  -17.8311  -18.8316   35.9103 H   0  0  0  0  0  0  0  0  0  0  0  0
  -15.8010  -18.1123   34.8061 H   0  0  0  0  0  0  0  0  0  0  0  0
  -15.2970  -18.8823   36.3060 H   0  0  0  0  0  0  0  0  0  0  0  0
  -11.7008  -23.8073   27.4583 H   0  0  0  0  0  0  0  0  0  0  0  0
  -10.0927  -23.8317   28.1190 H   0  0  0  0  0  0  0  0  0  0  0  0
  -10.4616  -26.0054   27.0544 H   0  0  0  0  0  0  0  0  0  0  0  0
  -12.0450  -26.1938   27.8513 H   0  0  0  0  0  0  0  0  0  0  0  0
   -9.3245  -25.7458   29.2081 H   0  0  0  0  0  0  0  0  0  0  0  0
  -10.4517  -27.0913   29.5135 H   0  0  0  0  0  0  0  0  0  0  0  0
  -12.2299  -25.6803   30.1001 H   0  0  0  0  0  0  0  0  0  0  0  0
   -8.7663  -25.7411   31.5383 H   0  0  0  0  0  0  0  0  0  0  0  0
  1  2  2  0
  2  3  1  0
  3  4  2  0
  4  5  1  0
  5  6  2  0
  6  7  1  0
  7  8  1  0
  8  9  2  0
  9 10  1  0
 10 11  2  0
  9 12  1  0
 12 13  1  0
 13 14  1  0
 14 15  1  0
  2 16  1  0
 16 17  1  0
 17 18  1  0
 18 19  1  0
 19 20  1  0
 20 21  1  0
 21 22  2  0
 22 23  1  0
 23 24  2  0
 24 25  1  0
 11  3  1  0
 20 16  1  0
 25 21  1  0
 10  6  1  0
 15  8  1  0
  4 26  1  0
  5 27  1  0
  7 28  1  0
 11 29  1  0
 12 30  1  0
 12 31  1  0
 13 32  1  0
 13 33  1  0
 14 34  1  0
 14 35  1  0
 15 36  1  0
 15 37  1  0
 17 38  1  0
 17 39  1  0
 18 40  1  0
 18 41  1  0
 19 42  1  0
 19 43  1  0
 20 44  1  0
 25 45  1  0
M  END
>  <Energy>  (54) 
98.845608354820868

>  <compound_id>  (54) 
51703

>  <target_id>  (54) 
1

>  <reference_id>  (54) 
39

>  <inspiration_ids>  (54) 
[3, 39]

>  <energy_score>  (54) 
28.72369252299569

>  <distance_score>  (54) 
3.3127320590763953

>  <path>  (54) 
/opt/xchem-fragalysis-2/maxwin/BulkDock/SCRATCH/511021/C51703-P39/C51703-P39.minimised.mol

>  <scratch_subdir>  (54) 
/opt/xchem-fragalysis-2/maxwin/BulkDock/SCRATCH/511021/C51703-P39

>  <fragmenstein_runtime>  (54) 
58.44882869720459

>  <fragmenstein_outcome>  (54) 
too moved

>  <fragmenstein_mode>  (54) 
expansion

>  <fragmenstein_error>  (54) 


$$$$
C51679-P3
     RDKit          3D

 44 47  0  0  0  0  0  0  0  0999 V2000
  -19.1922  -24.4020   25.8947 N   0  0  0  0  0  0  0  0  0  0  0  0
  -17.8392  -24.6528   25.4412 C   0  0  0  0  0  0  0  0  0  0  0  0
  -17.3642  -24.6103   24.3410 O   0  0  0  0  0  0  0  0  0  0  0  0
  -16.9046  -24.9119   26.6262 C   0  0  0  0  0  0  0  0  0  0  0  0
  -16.2562  -23.6243   27.0275 C   0  0  0  0  0  0  0  0  0  0  0  0
  -14.8388  -23.9495   26.6178 C   0  0  0  0  0  0  0  0  0  0  0  0
  -14.4788  -25.3273   27.1126 N   0  0  0  0  0  0  0  0  0  0  0  0
  -13.0887  -25.5687   26.9376 C   0  0  0  0  0  0  0  0  0  0  0  0
  -12.4897  -26.0532   26.0167 O   0  0  0  0  0  0  0  0  0  0  0  0
  -12.3198  -25.1177   28.1218 C   0  0  0  0  0  0  0  0  0  0  0  0
  -12.1913  -25.9569   29.2271 C   0  0  0  0  0  0  0  0  0  0  0  0
  -11.5284  -25.5169   30.3776 C   0  0  0  0  0  0  0  0  0  0  0  0
  -11.0386  -24.2055   30.3888 C   0  0  0  0  0  0  0  0  0  0  0  0
  -10.3481  -23.4958   31.3560 N   0  0  0  0  0  0  0  0  0  0  0  0
  -10.4888  -22.1637   31.0817 C   0  0  0  0  0  0  0  0  0  0  0  0
  -10.8782  -22.0392   29.7688 C   0  0  0  0  0  0  0  0  0  0  0  0
  -11.2371  -23.3308   29.3195 C   0  0  0  0  0  0  0  0  0  0  0  0
  -11.8196  -23.8111   28.1373 C   0  0  0  0  0  0  0  0  0  0  0  0
  -11.0632  -20.7412   29.0847 C   0  0  0  0  0  0  0  0  0  0  0  0
  -11.1171  -19.5571   30.0534 C   0  0  0  0  0  0  0  0  0  0  0  0
  -11.1735  -19.8548   31.5659 C   0  0  0  0  0  0  0  0  0  0  0  0
  -10.3387  -21.0558   32.0558 C   0  0  0  0  0  0  0  0  0  0  0  0
  -15.6548  -25.6982   26.2548 C   0  0  0  0  0  0  0  0  0  0  0  0
  -19.2634  -24.6481   26.8998 H   0  0  0  0  0  0  0  0  0  0  0  0
  -19.2101  -24.4184   26.9318 H   0  0  0  0  0  0  0  0  0  0  0  0
  -17.4212  -25.3883   27.4657 H   0  0  0  0  0  0  0  0  0  0  0  0
  -16.6362  -22.7283   26.5283 H   0  0  0  0  0  0  0  0  0  0  0  0
  -16.3276  -23.4792   28.1112 H   0  0  0  0  0  0  0  0  0  0  0  0
  -14.1880  -23.2269   27.1184 H   0  0  0  0  0  0  0  0  0  0  0  0
  -14.6133  -23.8065   25.5469 H   0  0  0  0  0  0  0  0  0  0  0  0
  -12.6071  -26.9618   29.1930 H   0  0  0  0  0  0  0  0  0  0  0  0
  -11.4447  -26.1610   31.2436 H   0  0  0  0  0  0  0  0  0  0  0  0
   -9.9894  -23.8785   32.2229 H   0  0  0  0  0  0  0  0  0  0  0  0
  -11.9371  -23.1584   27.2781 H   0  0  0  0  0  0  0  0  0  0  0  0
  -11.9745  -20.7608   28.4784 H   0  0  0  0  0  0  0  0  0  0  0  0
  -10.2432  -20.5921   28.3781 H   0  0  0  0  0  0  0  0  0  0  0  0
  -10.2823  -18.8888   29.8545 H   0  0  0  0  0  0  0  0  0  0  0  0
  -11.9675  -18.9487   29.7612 H   0  0  0  0  0  0  0  0  0  0  0  0
  -12.2197  -20.0378   31.8181 H   0  0  0  0  0  0  0  0  0  0  0  0
  -10.8913  -18.9569   32.1266 H   0  0  0  0  0  0  0  0  0  0  0  0
  -10.6935  -21.3592   33.0473 H   0  0  0  0  0  0  0  0  0  0  0  0
   -9.2863  -20.7913   32.1743 H   0  0  0  0  0  0  0  0  0  0  0  0
  -15.8353  -26.7597   26.4757 H   0  0  0  0  0  0  0  0  0  0  0  0
  -15.3744  -25.7142   25.1888 H   0  0  0  0  0  0  0  0  0  0  0  0
  1  2  1  0
  2  3  2  0
  2  4  1  0
  4  5  1  0
  5  6  1  0
  6  7  1  0
  7  8  1  0
  8  9  2  0
  8 10  1  0
 10 11  2  0
 11 12  1  0
 12 13  2  0
 13 14  1  0
 14 15  1  0
 15 16  2  0
 16 17  1  0
 17 18  2  0
 16 19  1  0
 19 20  1  0
 20 21  1  0
 21 22  1  0
  7 23  1  0
 23  4  1  0
 18 10  1  0
 17 13  1  0
 22 15  1  0
  1 24  1  0
  1 25  1  0
  4 26  1  0
  5 27  1  0
  5 28  1  0
  6 29  1  0
  6 30  1  0
 11 31  1  0
 12 32  1  0
 14 33  1  0
 18 34  1  0
 19 35  1  0
 19 36  1  0
 20 37  1  0
 20 38  1  0
 21 39  1  0
 21 40  1  0
 22 41  1  0
 22 42  1  0
 23 43  1  0
 23 44  1  0
M  END
>  <Energy>  (55) 
251.78367936138295

>  <compound_id>  (55) 
51679

>  <target_id>  (55) 
1

>  <reference_id>  (55) 
3

>  <inspiration_ids>  (55) 
[3, 39]

>  <energy_score>  (55) 
212.0534843635265

>  <distance_score>  (55) 
3.6008804128601626

>  <path>  (55) 
/opt/xchem-fragalysis-2/maxwin/BulkDock/SCRATCH/511021/C51679-P3/C51679-P3.minimised.mol

>  <scratch_subdir>  (55) 
/opt/xchem-fragalysis-2/maxwin/BulkDock/SCRATCH/511021/C51679-P3

>  <fragmenstein_runtime>  (55) 
10.3110191822052

>  <fragmenstein_outcome>  (55) 
too moved

>  <fragmenstein_mode>  (55) 
expansion

>  <fragmenstein_error>  (55) 


$$$$
C51679-P39
     RDKit          3D

 44 47  0  0  0  0  0  0  0  0999 V2000
  -14.2592  -25.6880   27.7216 N   0  0  0  0  0  0  0  0  0  0  0  0
  -13.8918  -25.8965   26.3304 C   0  0  0  0  0  0  0  0  0  0  0  0
  -14.5635  -26.1988   25.3815 O   0  0  0  0  0  0  0  0  0  0  0  0
  -12.4102  -25.5680   26.0675 C   0  0  0  0  0  0  0  0  0  0  0  0
  -12.1301  -24.1110   26.1643 C   0  0  0  0  0  0  0  0  0  0  0  0
  -11.2978  -24.0826   27.4305 C   0  0  0  0  0  0  0  0  0  0  0  0
  -11.6203  -25.2232   28.3920 N   0  0  0  0  0  0  0  0  0  0  0  0
  -10.8004  -25.1405   29.5435 C   0  0  0  0  0  0  0  0  0  0  0  0
   -9.7271  -25.6272   29.7713 O   0  0  0  0  0  0  0  0  0  0  0  0
  -11.4120  -24.4078   30.7207 C   0  0  0  0  0  0  0  0  0  0  0  0
  -10.8911  -24.8202   31.9549 C   0  0  0  0  0  0  0  0  0  0  0  0
  -11.4352  -24.3997   33.1551 C   0  0  0  0  0  0  0  0  0  0  0  0
  -12.4962  -23.5062   33.1131 C   0  0  0  0  0  0  0  0  0  0  0  0
  -13.2327  -23.0284   34.1698 N   0  0  0  0  0  0  0  0  0  0  0  0
  -14.2660  -22.2710   33.7119 C   0  0  0  0  0  0  0  0  0  0  0  0
  -14.1786  -22.2227   32.3390 C   0  0  0  0  0  0  0  0  0  0  0  0
  -13.0462  -23.0177   31.9285 C   0  0  0  0  0  0  0  0  0  0  0  0
  -12.4903  -23.4908   30.6984 C   0  0  0  0  0  0  0  0  0  0  0  0
  -15.3070  -21.6071   31.5957 C   0  0  0  0  0  0  0  0  0  0  0  0
  -16.1517  -20.6320   32.4196 C   0  0  0  0  0  0  0  0  0  0  0  0
  -16.5882  -21.3118   33.7113 C   0  0  0  0  0  0  0  0  0  0  0  0
  -15.3583  -21.6802   34.5408 C   0  0  0  0  0  0  0  0  0  0  0  0
  -11.4663  -26.0333   27.1309 C   0  0  0  0  0  0  0  0  0  0  0  0
  -13.4279  -25.3177   28.2433 H   0  0  0  0  0  0  0  0  0  0  0  0
  -13.3864  -25.5495   28.2895 H   0  0  0  0  0  0  0  0  0  0  0  0
  -12.1301  -26.0069   25.1069 H   0  0  0  0  0  0  0  0  0  0  0  0
  -11.5616  -23.7316   25.3120 H   0  0  0  0  0  0  0  0  0  0  0  0
  -13.0359  -23.5218   26.2553 H   0  0  0  0  0  0  0  0  0  0  0  0
  -10.2133  -24.0600   27.2308 H   0  0  0  0  0  0  0  0  0  0  0  0
  -11.4864  -23.1410   27.9618 H   0  0  0  0  0  0  0  0  0  0  0  0
  -10.0870  -25.5575   32.0076 H   0  0  0  0  0  0  0  0  0  0  0  0
  -11.0967  -24.8339   34.0879 H   0  0  0  0  0  0  0  0  0  0  0  0
  -13.0784  -23.3356   35.1244 H   0  0  0  0  0  0  0  0  0  0  0  0
  -12.9546  -23.1898   29.7710 H   0  0  0  0  0  0  0  0  0  0  0  0
  -15.9863  -22.4093   31.3508 H   0  0  0  0  0  0  0  0  0  0  0  0
  -14.9766  -21.1241   30.6937 H   0  0  0  0  0  0  0  0  0  0  0  0
  -17.0282  -20.3183   31.8419 H   0  0  0  0  0  0  0  0  0  0  0  0
  -15.5791  -19.7364   32.6669 H   0  0  0  0  0  0  0  0  0  0  0  0
  -17.1681  -22.2140   33.4788 H   0  0  0  0  0  0  0  0  0  0  0  0
  -17.2423  -20.6499   34.2899 H   0  0  0  0  0  0  0  0  0  0  0  0
  -15.6790  -22.3696   35.3216 H   0  0  0  0  0  0  0  0  0  0  0  0
  -14.9823  -20.7547   34.9874 H   0  0  0  0  0  0  0  0  0  0  0  0
  -11.7243  -27.0547   27.4407 H   0  0  0  0  0  0  0  0  0  0  0  0
  -10.4132  -26.1178   26.8339 H   0  0  0  0  0  0  0  0  0  0  0  0
  1  2  1  0
  2  3  2  0
  2  4  1  0
  4  5  1  0
  5  6  1  0
  6  7  1  0
  7  8  1  0
  8  9  2  0
  8 10  1  0
 10 11  2  0
 11 12  1  0
 12 13  2  0
 13 14  1  0
 14 15  1  0
 15 16  2  0
 16 17  1  0
 17 18  2  0
 16 19  1  0
 19 20  1  0
 20 21  1  0
 21 22  1  0
  7 23  1  0
 23  4  1  0
 18 10  1  0
 17 13  1  0
 22 15  1  0
  1 24  1  0
  1 25  1  0
  4 26  1  0
  5 27  1  0
  5 28  1  0
  6 29  1  0
  6 30  1  0
 11 31  1  0
 12 32  1  0
 14 33  1  0
 18 34  1  0
 19 35  1  0
 19 36  1  0
 20 37  1  0
 20 38  1  0
 21 39  1  0
 21 40  1  0
 22 41  1  0
 22 42  1  0
 23 43  1  0
 23 44  1  0
M  END
>  <Energy>  (56) 
241.04358232566582

>  <compound_id>  (56) 
51679

>  <target_id>  (56) 
1

>  <reference_id>  (56) 
39

>  <inspiration_ids>  (56) 
[3, 39]

>  <energy_score>  (56) 
201.3133873278133

>  <distance_score>  (56) 
2.9759746306988566

>  <path>  (56) 
/opt/xchem-fragalysis-2/maxwin/BulkDock/SCRATCH/511021/C51679-P39/C51679-P39.minimised.mol

>  <scratch_subdir>  (56) 
/opt/xchem-fragalysis-2/maxwin/BulkDock/SCRATCH/511021/C51679-P39

>  <fragmenstein_runtime>  (56) 
15.458506107330322

>  <fragmenstein_outcome>  (56) 
too moved

>  <fragmenstein_mode>  (56) 
expansion

>  <fragmenstein_error>  (56) 


$$$$
C51677-P3
     RDKit          3D

 50 54  0  0  0  0  0  0  0  0999 V2000
  -13.2757  -23.4732   25.9504 O   0  0  0  0  0  0  0  0  0  0  0  0
  -13.5271  -24.2517   26.8275 C   0  0  0  0  0  0  0  0  0  0  0  0
  -12.5821  -24.3423   27.9804 C   0  0  0  0  0  0  0  0  0  0  0  0
  -12.3382  -25.5596   28.6207 C   0  0  0  0  0  0  0  0  0  0  0  0
  -11.5269  -25.6311   29.7540 C   0  0  0  0  0  0  0  0  0  0  0  0
  -10.9602  -24.4411   30.2142 C   0  0  0  0  0  0  0  0  0  0  0  0
  -10.0510  -24.2110   31.2158 N   0  0  0  0  0  0  0  0  0  0  0  0
   -9.8173  -22.8719   31.3334 C   0  0  0  0  0  0  0  0  0  0  0  0
  -10.6847  -22.2090   30.4922 C   0  0  0  0  0  0  0  0  0  0  0  0
  -11.2285  -23.2049   29.6283 C   0  0  0  0  0  0  0  0  0  0  0  0
  -12.0136  -23.1589   28.4633 C   0  0  0  0  0  0  0  0  0  0  0  0
  -11.0628  -20.7640   30.4976 C   0  0  0  0  0  0  0  0  0  0  0  0
  -10.8799  -19.9809   31.8039 C   0  0  0  0  0  0  0  0  0  0  0  0
  -10.6963  -20.7826   33.0853 C   0  0  0  0  0  0  0  0  0  0  0  0
   -9.3241  -21.3999   33.3125 C   0  0  0  0  0  0  0  0  0  0  0  0
   -8.8028  -22.3685   32.2750 C   0  0  0  0  0  0  0  0  0  0  0  0
  -14.6360  -25.1185   27.0010 N   0  0  0  0  0  0  0  0  0  0  0  0
  -15.7868  -25.4214   26.1007 C   0  0  0  0  0  0  0  0  0  0  0  0
  -16.9023  -26.1339   26.8244 C   0  0  0  0  0  0  0  0  0  0  0  0
  -16.8863  -25.3584   28.1033 C   0  0  0  0  0  0  0  0  0  0  0  0
  -16.6456  -26.1936   29.3194 C   0  0  0  0  0  0  0  0  0  0  0  0
  -17.3321  -26.2915   30.5110 C   0  0  0  0  0  0  0  0  0  0  0  0
  -16.5900  -27.2039   31.2837 C   0  0  0  0  0  0  0  0  0  0  0  0
  -15.5142  -27.6574   30.6374 N   0  0  0  0  0  0  0  0  0  0  0  0
  -15.5760  -27.0413   29.4489 N   0  0  0  0  0  0  0  0  0  0  0  0
  -15.7285  -24.4224   27.7936 C   0  0  0  0  0  0  0  0  0  0  0  0
  -12.7668  -26.4772   28.2289 H   0  0  0  0  0  0  0  0  0  0  0  0
  -11.3387  -26.5828   30.2378 H   0  0  0  0  0  0  0  0  0  0  0  0
   -9.5871  -24.9142   31.7759 H   0  0  0  0  0  0  0  0  0  0  0  0
  -12.2096  -22.2105   27.9694 H   0  0  0  0  0  0  0  0  0  0  0  0
  -12.1299  -20.7418   30.2938 H   0  0  0  0  0  0  0  0  0  0  0  0
  -10.6342  -20.2338   29.6417 H   0  0  0  0  0  0  0  0  0  0  0  0
  -11.7733  -19.3538   31.9295 H   0  0  0  0  0  0  0  0  0  0  0  0
  -10.0679  -19.2589   31.7069 H   0  0  0  0  0  0  0  0  0  0  0  0
  -10.9344  -20.1335   33.9347 H   0  0  0  0  0  0  0  0  0  0  0  0
  -11.4181  -21.5807   33.1184 H   0  0  0  0  0  0  0  0  0  0  0  0
   -9.3433  -21.9145   34.2816 H   0  0  0  0  0  0  0  0  0  0  0  0
   -8.5906  -20.5964   33.4051 H   0  0  0  0  0  0  0  0  0  0  0  0
   -8.2852  -23.1942   32.7688 H   0  0  0  0  0  0  0  0  0  0  0  0
   -8.0287  -21.8838   31.6873 H   0  0  0  0  0  0  0  0  0  0  0  0
  -16.1119  -24.5310   25.5385 H   0  0  0  0  0  0  0  0  0  0  0  0
  -15.3805  -26.0842   25.3250 H   0  0  0  0  0  0  0  0  0  0  0  0
  -17.8481  -26.0426   26.2809 H   0  0  0  0  0  0  0  0  0  0  0  0
  -16.6838  -27.2002   26.9476 H   0  0  0  0  0  0  0  0  0  0  0  0
  -17.8091  -24.7825   28.2405 H   0  0  0  0  0  0  0  0  0  0  0  0
  -18.2341  -25.7679   30.7960 H   0  0  0  0  0  0  0  0  0  0  0  0
  -16.7868  -27.5513   32.2902 H   0  0  0  0  0  0  0  0  0  0  0  0
  -14.8514  -27.2358   28.7667 H   0  0  0  0  0  0  0  0  0  0  0  0
  -15.2695  -24.0905   28.7345 H   0  0  0  0  0  0  0  0  0  0  0  0
  -16.0393  -23.4803   27.3069 H   0  0  0  0  0  0  0  0  0  0  0  0
  1  2  2  0
  2  3  1  0
  3  4  2  0
  4  5  1  0
  5  6  2  0
  6  7  1  0
  7  8  1  0
  8  9  2  0
  9 10  1  0
 10 11  2  0
  9 12  1  0
 12 13  1  0
 13 14  1  0
 14 15  1  0
 15 16  1  0
  2 17  1  0
 17 18  1  0
 18 19  1  0
 19 20  1  0
 20 21  1  0
 21 22  2  0
 22 23  1  0
 23 24  2  0
 24 25  1  0
 20 26  1  0
 11  3  1  0
 26 17  1  0
 10  6  1  0
 25 21  1  0
 16  8  1  0
  4 27  1  0
  5 28  1  0
  7 29  1  0
 11 30  1  0
 12 31  1  0
 12 32  1  0
 13 33  1  0
 13 34  1  0
 14 35  1  0
 14 36  1  0
 15 37  1  0
 15 38  1  0
 16 39  1  0
 16 40  1  0
 18 41  1  0
 18 42  1  0
 19 43  1  0
 19 44  1  0
 20 45  1  0
 22 46  1  0
 23 47  1  0
 25 48  1  0
 26 49  1  0
 26 50  1  0
M  END
>  <Energy>  (57) 
113.3402093645779

>  <compound_id>  (57) 
51677

>  <target_id>  (57) 
1

>  <reference_id>  (57) 
3

>  <inspiration_ids>  (57) 
[3, 39]

>  <energy_score>  (57) 
27.825179125037437

>  <distance_score>  (57) 
4.099778258364065

>  <path>  (57) 
/opt/xchem-fragalysis-2/maxwin/BulkDock/SCRATCH/511021/C51677-P3/C51677-P3.minimised.mol

>  <scratch_subdir>  (57) 
/opt/xchem-fragalysis-2/maxwin/BulkDock/SCRATCH/511021/C51677-P3

>  <fragmenstein_runtime>  (57) 
53.02925229072571

>  <fragmenstein_outcome>  (57) 
too moved

>  <fragmenstein_mode>  (57) 
expansion

>  <fragmenstein_error>  (57) 


$$$$
C51677-P39
     RDKit          3D

 50 54  0  0  0  0  0  0  0  0999 V2000
  -12.3575  -26.3489   24.9889 O   0  0  0  0  0  0  0  0  0  0  0  0
  -13.1504  -25.7836   25.6900 C   0  0  0  0  0  0  0  0  0  0  0  0
  -12.6009  -24.8260   26.6411 C   0  0  0  0  0  0  0  0  0  0  0  0
  -12.1327  -23.5822   26.2708 C   0  0  0  0  0  0  0  0  0  0  0  0
  -11.7516  -22.6613   27.2541 C   0  0  0  0  0  0  0  0  0  0  0  0
  -11.8582  -23.0293   28.5775 C   0  0  0  0  0  0  0  0  0  0  0  0
  -11.7435  -22.3012   29.7311 N   0  0  0  0  0  0  0  0  0  0  0  0
  -11.8257  -23.1505   30.7993 C   0  0  0  0  0  0  0  0  0  0  0  0
  -11.8666  -24.4304   30.2863 C   0  0  0  0  0  0  0  0  0  0  0  0
  -12.1389  -24.3344   28.9234 C   0  0  0  0  0  0  0  0  0  0  0  0
  -12.5115  -25.2612   27.9536 C   0  0  0  0  0  0  0  0  0  0  0  0
  -11.6713  -25.7069   30.9837 C   0  0  0  0  0  0  0  0  0  0  0  0
  -10.4725  -25.6485   31.8955 C   0  0  0  0  0  0  0  0  0  0  0  0
  -10.6327  -24.7776   33.1370 C   0  0  0  0  0  0  0  0  0  0  0  0
  -11.8370  -23.8252   33.2005 C   0  0  0  0  0  0  0  0  0  0  0  0
  -11.7612  -22.6784   32.1975 C   0  0  0  0  0  0  0  0  0  0  0  0
  -14.5657  -25.9563   25.8253 N   0  0  0  0  0  0  0  0  0  0  0  0
  -15.4760  -26.9545   25.2283 C   0  0  0  0  0  0  0  0  0  0  0  0
  -16.9137  -26.5600   25.3721 C   0  0  0  0  0  0  0  0  0  0  0  0
  -16.7832  -25.3464   24.5328 C   0  0  0  0  0  0  0  0  0  0  0  0
  -17.8661  -24.3383   24.7107 C   0  0  0  0  0  0  0  0  0  0  0  0
  -19.2246  -24.5237   24.8962 C   0  0  0  0  0  0  0  0  0  0  0  0
  -19.7792  -23.2343   24.9107 C   0  0  0  0  0  0  0  0  0  0  0  0
  -18.8543  -22.2907   24.7425 N   0  0  0  0  0  0  0  0  0  0  0  0
  -17.7099  -22.9801   24.6167 N   0  0  0  0  0  0  0  0  0  0  0  0
  -15.3128  -25.0239   24.8485 C   0  0  0  0  0  0  0  0  0  0  0  0
  -12.1322  -23.2827   25.2267 H   0  0  0  0  0  0  0  0  0  0  0  0
  -11.4781  -21.6522   26.9843 H   0  0  0  0  0  0  0  0  0  0  0  0
  -11.5831  -21.3046   29.7743 H   0  0  0  0  0  0  0  0  0  0  0  0
  -12.7494  -26.2870   28.2122 H   0  0  0  0  0  0  0  0  0  0  0  0
  -11.5024  -26.5189   30.2658 H   0  0  0  0  0  0  0  0  0  0  0  0
  -12.5808  -25.9537   31.5067 H   0  0  0  0  0  0  0  0  0  0  0  0
  -10.2697  -26.6704   32.2039 H   0  0  0  0  0  0  0  0  0  0  0  0
   -9.5847  -25.3243   31.3362 H   0  0  0  0  0  0  0  0  0  0  0  0
   -9.7033  -24.2055   33.2280 H   0  0  0  0  0  0  0  0  0  0  0  0
  -10.6787  -25.4353   34.0136 H   0  0  0  0  0  0  0  0  0  0  0  0
  -11.8991  -23.3871   34.2003 H   0  0  0  0  0  0  0  0  0  0  0  0
  -12.7749  -24.3794   33.0854 H   0  0  0  0  0  0  0  0  0  0  0  0
  -10.8378  -22.1123   32.3268 H   0  0  0  0  0  0  0  0  0  0  0  0
  -12.5931  -21.9889   32.3843 H   0  0  0  0  0  0  0  0  0  0  0  0
  -15.1854  -27.2091   24.1987 H   0  0  0  0  0  0  0  0  0  0  0  0
  -15.3162  -27.8664   25.8147 H   0  0  0  0  0  0  0  0  0  0  0  0
  -17.6031  -27.3027   24.9598 H   0  0  0  0  0  0  0  0  0  0  0  0
  -17.1822  -26.3560   26.4141 H   0  0  0  0  0  0  0  0  0  0  0  0
  -16.8473  -25.6618   23.4815 H   0  0  0  0  0  0  0  0  0  0  0  0
  -19.7477  -25.4654   24.9906 H   0  0  0  0  0  0  0  0  0  0  0  0
  -20.8158  -22.9450   25.0274 H   0  0  0  0  0  0  0  0  0  0  0  0
  -16.8605  -22.4419   24.4822 H   0  0  0  0  0  0  0  0  0  0  0  0
  -14.7306  -24.9994   23.9156 H   0  0  0  0  0  0  0  0  0  0  0  0
  -15.2002  -24.0121   25.2400 H   0  0  0  0  0  0  0  0  0  0  0  0
  1  2  2  0
  2  3  1  0
  3  4  2  0
  4  5  1  0
  5  6  2  0
  6  7  1  0
  7  8  1  0
  8  9  2  0
  9 10  1  0
 10 11  2  0
  9 12  1  0
 12 13  1  0
 13 14  1  0
 14 15  1  0
 15 16  1  0
  2 17  1  0
 17 18  1  0
 18 19  1  0
 19 20  1  0
 20 21  1  0
 21 22  2  0
 22 23  1  0
 23 24  2  0
 24 25  1  0
 20 26  1  0
 11  3  1  0
 26 17  1  0
 10  6  1  0
 25 21  1  0
 16  8  1  0
  4 27  1  0
  5 28  1  0
  7 29  1  0
 11 30  1  0
 12 31  1  0
 12 32  1  0
 13 33  1  0
 13 34  1  0
 14 35  1  0
 14 36  1  0
 15 37  1  0
 15 38  1  0
 16 39  1  0
 16 40  1  0
 18 41  1  0
 18 42  1  0
 19 43  1  0
 19 44  1  0
 20 45  1  0
 22 46  1  0
 23 47  1  0
 25 48  1  0
 26 49  1  0
 26 50  1  0
M  END
>  <Energy>  (58) 
126.21033054054242

>  <compound_id>  (58) 
51677

>  <target_id>  (58) 
1

>  <reference_id>  (58) 
39

>  <inspiration_ids>  (58) 
[3, 39]

>  <energy_score>  (58) 
40.695300301003044

>  <distance_score>  (58) 
4.538351797901642

>  <path>  (58) 
/opt/xchem-fragalysis-2/maxwin/BulkDock/SCRATCH/511021/C51677-P39/C51677-P39.minimised.mol

>  <scratch_subdir>  (58) 
/opt/xchem-fragalysis-2/maxwin/BulkDock/SCRATCH/511021/C51677-P39

>  <fragmenstein_runtime>  (58) 
61.550514936447144

>  <fragmenstein_outcome>  (58) 
too moved

>  <fragmenstein_mode>  (58) 
expansion

>  <fragmenstein_error>  (58) 


$$$$
C51680-P3
     RDKit          3D

 41 44  0  0  0  0  0  0  0  0999 V2000
  -10.6620  -20.9814   27.9412 O   0  0  0  0  0  0  0  0  0  0  0  0
  -11.2044  -22.0194   27.6777 C   0  0  0  0  0  0  0  0  0  0  0  0
  -11.2016  -23.0454   28.7645 C   0  0  0  0  0  0  0  0  0  0  0  0
  -10.4988  -22.7639   29.9459 C   0  0  0  0  0  0  0  0  0  0  0  0
  -10.4354  -23.6736   30.9980 C   0  0  0  0  0  0  0  0  0  0  0  0
  -11.2125  -24.8248   30.8677 C   0  0  0  0  0  0  0  0  0  0  0  0
  -11.4757  -25.8169   31.7829 N   0  0  0  0  0  0  0  0  0  0  0  0
  -12.3946  -26.6825   31.2802 C   0  0  0  0  0  0  0  0  0  0  0  0
  -12.6709  -26.3150   29.9840 C   0  0  0  0  0  0  0  0  0  0  0  0
  -11.9477  -25.1267   29.7242 C   0  0  0  0  0  0  0  0  0  0  0  0
  -11.8874  -24.2578   28.6300 C   0  0  0  0  0  0  0  0  0  0  0  0
  -13.6391  -27.0526   29.1309 C   0  0  0  0  0  0  0  0  0  0  0  0
  -13.9395  -28.4393   29.7253 C   0  0  0  0  0  0  0  0  0  0  0  0
  -14.1786  -28.3824   31.2455 C   0  0  0  0  0  0  0  0  0  0  0  0
  -12.9548  -27.8494   32.0065 C   0  0  0  0  0  0  0  0  0  0  0  0
  -11.8785  -22.4358   26.4983 N   0  0  0  0  0  0  0  0  0  0  0  0
  -12.0349  -21.7587   25.1661 C   0  0  0  0  0  0  0  0  0  0  0  0
  -13.2625  -22.1148   24.3663 C   0  0  0  0  0  0  0  0  0  0  0  0
  -14.1447  -22.6067   25.4384 C   0  0  0  0  0  0  0  0  0  0  0  0
  -14.2505  -24.0249   25.4452 O   0  0  0  0  0  0  0  0  0  0  0  0
  -13.3208  -22.1068   26.5900 C   0  0  0  0  0  0  0  0  0  0  0  0
   -9.9686  -21.8222   30.0504 H   0  0  0  0  0  0  0  0  0  0  0  0
   -9.8693  -23.4515   31.8987 H   0  0  0  0  0  0  0  0  0  0  0  0
  -11.0487  -25.8721   32.6985 H   0  0  0  0  0  0  0  0  0  0  0  0
  -12.4087  -24.5198   27.7171 H   0  0  0  0  0  0  0  0  0  0  0  0
  -14.5689  -26.4743   29.0676 H   0  0  0  0  0  0  0  0  0  0  0  0
  -13.2507  -27.1655   28.1126 H   0  0  0  0  0  0  0  0  0  0  0  0
  -14.8165  -28.8667   29.2262 H   0  0  0  0  0  0  0  0  0  0  0  0
  -13.0972  -29.1142   29.5235 H   0  0  0  0  0  0  0  0  0  0  0  0
  -14.4346  -29.3797   31.6208 H   0  0  0  0  0  0  0  0  0  0  0  0
  -15.0432  -27.7354   31.4440 H   0  0  0  0  0  0  0  0  0  0  0  0
  -12.1900  -28.6286   32.0634 H   0  0  0  0  0  0  0  0  0  0  0  0
  -13.2372  -27.5802   33.0299 H   0  0  0  0  0  0  0  0  0  0  0  0
  -11.1436  -22.0377   24.5901 H   0  0  0  0  0  0  0  0  0  0  0  0
  -11.9649  -20.6665   25.2959 H   0  0  0  0  0  0  0  0  0  0  0  0
  -13.6478  -21.1939   23.9335 H   0  0  0  0  0  0  0  0  0  0  0  0
  -13.0770  -22.8216   23.5689 H   0  0  0  0  0  0  0  0  0  0  0  0
  -15.1528  -22.1856   25.4007 H   0  0  0  0  0  0  0  0  0  0  0  0
  -14.6621  -24.2880   26.2862 H   0  0  0  0  0  0  0  0  0  0  0  0
  -13.6900  -22.6221   27.4757 H   0  0  0  0  0  0  0  0  0  0  0  0
  -13.4204  -21.0309   26.7886 H   0  0  0  0  0  0  0  0  0  0  0  0
  1  2  2  0
  2  3  1  0
  3  4  2  0
  4  5  1  0
  5  6  2  0
  6  7  1  0
  7  8  1  0
  8  9  2  0
  9 10  1  0
 10 11  2  0
  9 12  1  0
 12 13  1  0
 13 14  1  0
 14 15  1  0
  2 16  1  0
 16 17  1  0
 17 18  1  0
 18 19  1  0
 19 20  1  0
 19 21  1  0
 11  3  1  0
 21 16  1  0
 10  6  1  0
 15  8  1  0
  4 22  1  0
  5 23  1  0
  7 24  1  0
 11 25  1  0
 12 26  1  0
 12 27  1  0
 13 28  1  0
 13 29  1  0
 14 30  1  0
 14 31  1  0
 15 32  1  0
 15 33  1  0
 17 34  1  0
 17 35  1  0
 18 36  1  0
 18 37  1  0
 19 38  1  0
 20 39  1  0
 21 40  1  0
 21 41  1  0
M  END
>  <Energy>  (59) 
104.02512284738246

>  <compound_id>  (59) 
51680

>  <target_id>  (59) 
1

>  <reference_id>  (59) 
3

>  <inspiration_ids>  (59) 
[3, 39]

>  <energy_score>  (59) 
23.57556711240416

>  <distance_score>  (59) 
4.117342474578647

>  <path>  (59) 
/opt/xchem-fragalysis-2/maxwin/BulkDock/SCRATCH/511021/C51680-P3/C51680-P3.minimised.mol

>  <scratch_subdir>  (59) 
/opt/xchem-fragalysis-2/maxwin/BulkDock/SCRATCH/511021/C51680-P3

>  <fragmenstein_runtime>  (59) 
16.006437063217163

>  <fragmenstein_outcome>  (59) 
too moved

>  <fragmenstein_mode>  (59) 
expansion

>  <fragmenstein_error>  (59) 


$$$$
C51680-P39
     RDKit          3D

 41 44  0  0  0  0  0  0  0  0999 V2000
  -12.3603  -26.5408   28.0544 O   0  0  0  0  0  0  0  0  0  0  0  0
  -12.9685  -25.5535   27.7456 C   0  0  0  0  0  0  0  0  0  0  0  0
  -12.5620  -24.2550   28.3335 C   0  0  0  0  0  0  0  0  0  0  0  0
  -11.6925  -23.3636   27.7285 C   0  0  0  0  0  0  0  0  0  0  0  0
  -11.2470  -22.2343   28.4284 C   0  0  0  0  0  0  0  0  0  0  0  0
  -11.6728  -22.0941   29.7482 C   0  0  0  0  0  0  0  0  0  0  0  0
  -11.1428  -21.4379   30.8356 N   0  0  0  0  0  0  0  0  0  0  0  0
  -11.4458  -22.2626   31.8887 C   0  0  0  0  0  0  0  0  0  0  0  0
  -12.7964  -22.4427   31.6808 C   0  0  0  0  0  0  0  0  0  0  0  0
  -12.6725  -22.8628   30.3236 C   0  0  0  0  0  0  0  0  0  0  0  0
  -13.0618  -23.9823   29.6008 C   0  0  0  0  0  0  0  0  0  0  0  0
  -13.6388  -22.9229   32.7932 C   0  0  0  0  0  0  0  0  0  0  0  0
  -12.8012  -23.7597   33.7624 C   0  0  0  0  0  0  0  0  0  0  0  0
  -11.5757  -24.4198   33.1144 C   0  0  0  0  0  0  0  0  0  0  0  0
  -10.6344  -23.4125   32.4373 C   0  0  0  0  0  0  0  0  0  0  0  0
  -14.1256  -25.3972   26.9468 N   0  0  0  0  0  0  0  0  0  0  0  0
  -15.0265  -26.4128   26.3221 C   0  0  0  0  0  0  0  0  0  0  0  0
  -15.9319  -25.8081   25.2787 C   0  0  0  0  0  0  0  0  0  0  0  0
  -14.9250  -24.9690   24.5850 C   0  0  0  0  0  0  0  0  0  0  0  0
  -15.3719  -23.6260   24.4453 O   0  0  0  0  0  0  0  0  0  0  0  0
  -13.7394  -25.1800   25.5075 C   0  0  0  0  0  0  0  0  0  0  0  0
  -11.3034  -23.5745   26.7384 H   0  0  0  0  0  0  0  0  0  0  0  0
  -10.4862  -21.5931   28.0148 H   0  0  0  0  0  0  0  0  0  0  0  0
  -10.3494  -20.8278   30.8021 H   0  0  0  0  0  0  0  0  0  0  0  0
  -13.5847  -24.7372   30.1294 H   0  0  0  0  0  0  0  0  0  0  0  0
  -14.4924  -23.4823   32.4505 H   0  0  0  0  0  0  0  0  0  0  0  0
  -14.0562  -22.0616   33.3300 H   0  0  0  0  0  0  0  0  0  0  0  0
  -12.4548  -23.0978   34.5634 H   0  0  0  0  0  0  0  0  0  0  0  0
  -13.4480  -24.5190   34.2078 H   0  0  0  0  0  0  0  0  0  0  0  0
  -11.9291  -25.1034   32.3340 H   0  0  0  0  0  0  0  0  0  0  0  0
  -11.0257  -25.0276   33.8404 H   0  0  0  0  0  0  0  0  0  0  0  0
   -9.8193  -23.1063   33.0735 H   0  0  0  0  0  0  0  0  0  0  0  0
  -10.1581  -23.9693   31.6231 H   0  0  0  0  0  0  0  0  0  0  0  0
  -15.6473  -26.7903   27.1451 H   0  0  0  0  0  0  0  0  0  0  0  0
  -14.4830  -27.3010   25.9865 H   0  0  0  0  0  0  0  0  0  0  0  0
  -16.3685  -26.5786   24.6360 H   0  0  0  0  0  0  0  0  0  0  0  0
  -16.7441  -25.2214   25.7105 H   0  0  0  0  0  0  0  0  0  0  0  0
  -14.7038  -25.3551   23.5954 H   0  0  0  0  0  0  0  0  0  0  0  0
  -14.6706  -23.0238   24.7711 H   0  0  0  0  0  0  0  0  0  0  0  0
  -13.1112  -24.2819   25.4843 H   0  0  0  0  0  0  0  0  0  0  0  0
  -13.0696  -25.9904   25.1701 H   0  0  0  0  0  0  0  0  0  0  0  0
  1  2  2  0
  2  3  1  0
  3  4  2  0
  4  5  1  0
  5  6  2  0
  6  7  1  0
  7  8  1  0
  8  9  2  0
  9 10  1  0
 10 11  2  0
  9 12  1  0
 12 13  1  0
 13 14  1  0
 14 15  1  0
  2 16  1  0
 16 17  1  0
 17 18  1  0
 18 19  1  0
 19 20  1  0
 19 21  1  0
 11  3  1  0
 21 16  1  0
 10  6  1  0
 15  8  1  0
  4 22  1  0
  5 23  1  0
  7 24  1  0
 11 25  1  0
 12 26  1  0
 12 27  1  0
 13 28  1  0
 13 29  1  0
 14 30  1  0
 14 31  1  0
 15 32  1  0
 15 33  1  0
 17 34  1  0
 17 35  1  0
 18 36  1  0
 18 37  1  0
 19 38  1  0
 20 39  1  0
 21 40  1  0
 21 41  1  0
M  END
>  <Energy>  (60) 
173.90524655860654

>  <compound_id>  (60) 
51680

>  <target_id>  (60) 
1

>  <reference_id>  (60) 
39

>  <inspiration_ids>  (60) 
[3, 39]

>  <energy_score>  (60) 
93.45569082362829

>  <distance_score>  (60) 
3.7857199027607984

>  <path>  (60) 
/opt/xchem-fragalysis-2/maxwin/BulkDock/SCRATCH/511021/C51680-P39/C51680-P39.minimised.mol

>  <scratch_subdir>  (60) 
/opt/xchem-fragalysis-2/maxwin/BulkDock/SCRATCH/511021/C51680-P39

>  <fragmenstein_runtime>  (60) 
13.780619382858276

>  <fragmenstein_outcome>  (60) 
too moved

>  <fragmenstein_mode>  (60) 
expansion

>  <fragmenstein_error>  (60) 


$$$$
C51704-P3
     RDKit          3D

 47 50  0  0  0  0  0  0  0  0999 V2000
  -12.6418  -25.5795   27.4345 O   0  0  0  0  0  0  0  0  0  0  0  0
  -12.5189  -24.4385   27.6841 C   0  0  0  0  0  0  0  0  0  0  0  0
  -11.8056  -24.0671   28.9389 C   0  0  0  0  0  0  0  0  0  0  0  0
  -11.5680  -25.0906   29.8537 C   0  0  0  0  0  0  0  0  0  0  0  0
  -10.7803  -24.8882   30.9716 C   0  0  0  0  0  0  0  0  0  0  0  0
  -10.1816  -23.6586   31.1205 C   0  0  0  0  0  0  0  0  0  0  0  0
   -9.2670  -23.2478   32.0489 N   0  0  0  0  0  0  0  0  0  0  0  0
   -9.4467  -21.9100   32.1656 C   0  0  0  0  0  0  0  0  0  0  0  0
  -10.2024  -21.4305   31.1182 C   0  0  0  0  0  0  0  0  0  0  0  0
  -10.5688  -22.5613   30.3564 C   0  0  0  0  0  0  0  0  0  0  0  0
  -11.3753  -22.7654   29.2273 C   0  0  0  0  0  0  0  0  0  0  0  0
  -10.7389  -20.0283   31.0494 C   0  0  0  0  0  0  0  0  0  0  0  0
  -11.8554  -19.8622   32.0208 C   0  0  0  0  0  0  0  0  0  0  0  0
  -11.5232  -19.9996   33.5036 C   0  0  0  0  0  0  0  0  0  0  0  0
  -10.6506  -21.1442   34.0081 C   0  0  0  0  0  0  0  0  0  0  0  0
   -9.2444  -21.2552   33.4439 C   0  0  0  0  0  0  0  0  0  0  0  0
  -12.9385  -23.2284   26.9128 N   0  0  0  0  0  0  0  0  0  0  0  0
  -13.7172  -23.1049   25.6626 C   0  0  0  0  0  0  0  0  0  0  0  0
  -13.6112  -21.7816   24.9908 C   0  0  0  0  0  0  0  0  0  0  0  0
  -12.1613  -21.5496   25.1267 C   0  0  0  0  0  0  0  0  0  0  0  0
  -11.4067  -21.5513   23.7928 C   0  0  0  0  0  0  0  0  0  0  0  0
  -11.0412  -20.2334   23.4160 O   0  0  0  0  0  0  0  0  0  0  0  0
  -11.8410  -22.7696   25.9680 C   0  0  0  0  0  0  0  0  0  0  0  0
  -11.9884  -26.0820   29.6883 H   0  0  0  0  0  0  0  0  0  0  0  0
  -10.6767  -25.6423   31.7304 H   0  0  0  0  0  0  0  0  0  0  0  0
   -8.8242  -23.8466   32.7426 H   0  0  0  0  0  0  0  0  0  0  0  0
  -11.6648  -21.9091   28.6307 H   0  0  0  0  0  0  0  0  0  0  0  0
  -10.0184  -19.2622   31.3330 H   0  0  0  0  0  0  0  0  0  0  0  0
  -11.0766  -19.8020   30.0309 H   0  0  0  0  0  0  0  0  0  0  0  0
  -12.2954  -18.8742   31.9054 H   0  0  0  0  0  0  0  0  0  0  0  0
  -12.5868  -20.5566   31.6677 H   0  0  0  0  0  0  0  0  0  0  0  0
  -12.4569  -20.0076   34.0764 H   0  0  0  0  0  0  0  0  0  0  0  0
  -11.0783  -19.0549   33.8039 H   0  0  0  0  0  0  0  0  0  0  0  0
  -10.6071  -21.0941   35.0948 H   0  0  0  0  0  0  0  0  0  0  0  0
  -11.1470  -22.0698   33.7938 H   0  0  0  0  0  0  0  0  0  0  0  0
   -8.6174  -21.8594   34.1078 H   0  0  0  0  0  0  0  0  0  0  0  0
   -8.7543  -20.2949   33.2968 H   0  0  0  0  0  0  0  0  0  0  0  0
  -13.5643  -23.9723   25.0077 H   0  0  0  0  0  0  0  0  0  0  0  0
  -14.7606  -23.2408   25.9815 H   0  0  0  0  0  0  0  0  0  0  0  0
  -13.9713  -21.8116   23.9741 H   0  0  0  0  0  0  0  0  0  0  0  0
  -14.1791  -21.0375   25.5344 H   0  0  0  0  0  0  0  0  0  0  0  0
  -12.0079  -20.6212   25.6870 H   0  0  0  0  0  0  0  0  0  0  0  0
  -10.4698  -22.1074   23.8827 H   0  0  0  0  0  0  0  0  0  0  0  0
  -11.9837  -21.9905   22.9754 H   0  0  0  0  0  0  0  0  0  0  0  0
  -11.8306  -19.6718   23.3522 H   0  0  0  0  0  0  0  0  0  0  0  0
  -11.4007  -23.6216   25.4466 H   0  0  0  0  0  0  0  0  0  0  0  0
  -10.9959  -22.4822   26.6077 H   0  0  0  0  0  0  0  0  0  0  0  0
  1  2  2  0
  2  3  1  0
  3  4  2  0
  4  5  1  0
  5  6  2  0
  6  7  1  0
  7  8  1  0
  8  9  2  0
  9 10  1  0
 10 11  2  0
  9 12  1  0
 12 13  1  0
 13 14  1  0
 14 15  1  0
 15 16  1  0
  2 17  1  0
 17 18  1  0
 18 19  1  0
 19 20  1  0
 20 21  1  0
 21 22  1  0
 20 23  1  0
 11  3  1  0
 23 17  1  0
 10  6  1  0
 16  8  1  0
  4 24  1  0
  5 25  1  0
  7 26  1  0
 11 27  1  0
 12 28  1  0
 12 29  1  0
 13 30  1  0
 13 31  1  0
 14 32  1  0
 14 33  1  0
 15 34  1  0
 15 35  1  0
 16 36  1  0
 16 37  1  0
 18 38  1  0
 18 39  1  0
 19 40  1  0
 19 41  1  0
 20 42  1  0
 21 43  1  0
 21 44  1  0
 22 45  1  0
 23 46  1  0
 23 47  1  0
M  END
>  <Energy>  (61) 
129.49715706651253

>  <compound_id>  (61) 
51704

>  <target_id>  (61) 
1

>  <reference_id>  (61) 
3

>  <inspiration_ids>  (61) 
[3, 39]

>  <energy_score>  (61) 
-39.8055238647529

>  <distance_score>  (61) 
3.0730484678403363

>  <path>  (61) 
/opt/xchem-fragalysis-2/maxwin/BulkDock/SCRATCH/511021/C51704-P3/C51704-P3.minimised.mol

>  <scratch_subdir>  (61) 
/opt/xchem-fragalysis-2/maxwin/BulkDock/SCRATCH/511021/C51704-P3

>  <fragmenstein_runtime>  (61) 
12.53542709350586

>  <fragmenstein_outcome>  (61) 
too moved

>  <fragmenstein_mode>  (61) 
expansion

>  <fragmenstein_error>  (61) 


$$$$
C51704-P39
     RDKit          3D

 47 50  0  0  0  0  0  0  0  0999 V2000
   -9.9454  -24.7881   32.0961 O   0  0  0  0  0  0  0  0  0  0  0  0
  -11.0468  -24.6035   31.6507 C   0  0  0  0  0  0  0  0  0  0  0  0
  -11.8390  -23.5129   32.2705 C   0  0  0  0  0  0  0  0  0  0  0  0
  -11.3183  -22.2342   32.2051 C   0  0  0  0  0  0  0  0  0  0  0  0
  -11.9117  -21.1763   32.8644 C   0  0  0  0  0  0  0  0  0  0  0  0
  -13.1375  -21.4011   33.4551 C   0  0  0  0  0  0  0  0  0  0  0  0
  -13.9517  -20.5230   34.1138 N   0  0  0  0  0  0  0  0  0  0  0  0
  -15.1954  -21.0702   34.2127 C   0  0  0  0  0  0  0  0  0  0  0  0
  -15.0636  -22.4336   33.9998 C   0  0  0  0  0  0  0  0  0  0  0  0
  -13.7600  -22.6391   33.4548 C   0  0  0  0  0  0  0  0  0  0  0  0
  -13.0435  -23.7313   32.9287 C   0  0  0  0  0  0  0  0  0  0  0  0
  -16.1253  -23.4658   34.1797 C   0  0  0  0  0  0  0  0  0  0  0  0
  -17.3283  -23.0160   34.9940 C   0  0  0  0  0  0  0  0  0  0  0  0
  -18.2393  -22.0283   34.2640 C   0  0  0  0  0  0  0  0  0  0  0  0
  -17.5816  -20.7708   33.6870 C   0  0  0  0  0  0  0  0  0  0  0  0
  -16.3978  -20.2537   34.5042 C   0  0  0  0  0  0  0  0  0  0  0  0
  -11.7080  -25.2006   30.5458 N   0  0  0  0  0  0  0  0  0  0  0  0
  -11.2934  -26.3255   29.6493 C   0  0  0  0  0  0  0  0  0  0  0  0
  -12.0170  -26.3672   28.3117 C   0  0  0  0  0  0  0  0  0  0  0  0
  -12.3017  -24.9162   28.1517 C   0  0  0  0  0  0  0  0  0  0  0  0
  -11.9246  -24.3150   26.8155 C   0  0  0  0  0  0  0  0  0  0  0  0
  -11.9063  -22.9105   26.9857 O   0  0  0  0  0  0  0  0  0  0  0  0
  -11.4554  -24.4052   29.2953 C   0  0  0  0  0  0  0  0  0  0  0  0
  -10.3933  -22.0415   31.7048 H   0  0  0  0  0  0  0  0  0  0  0  0
  -11.4229  -20.2126   32.9165 H   0  0  0  0  0  0  0  0  0  0  0  0
  -13.7039  -19.5678   34.3300 H   0  0  0  0  0  0  0  0  0  0  0  0
  -13.4250  -24.7279   33.0067 H   0  0  0  0  0  0  0  0  0  0  0  0
  -16.4802  -23.8054   33.2064 H   0  0  0  0  0  0  0  0  0  0  0  0
  -15.6793  -24.3207   34.7000 H   0  0  0  0  0  0  0  0  0  0  0  0
  -17.9291  -23.9001   35.2432 H   0  0  0  0  0  0  0  0  0  0  0  0
  -17.0094  -22.5922   35.9539 H   0  0  0  0  0  0  0  0  0  0  0  0
  -18.7675  -22.5471   33.4540 H   0  0  0  0  0  0  0  0  0  0  0  0
  -19.0174  -21.7150   34.9725 H   0  0  0  0  0  0  0  0  0  0  0  0
  -17.2754  -20.9632   32.6497 H   0  0  0  0  0  0  0  0  0  0  0  0
  -18.3468  -19.9862   33.6319 H   0  0  0  0  0  0  0  0  0  0  0  0
  -16.2081  -19.2121   34.2162 H   0  0  0  0  0  0  0  0  0  0  0  0
  -16.6250  -20.2513   35.5754 H   0  0  0  0  0  0  0  0  0  0  0  0
  -10.1951  -26.3580   29.5510 H   0  0  0  0  0  0  0  0  0  0  0  0
  -11.5338  -27.2355   30.2135 H   0  0  0  0  0  0  0  0  0  0  0  0
  -11.3761  -26.7913   27.5328 H   0  0  0  0  0  0  0  0  0  0  0  0
  -12.9334  -26.9607   28.3517 H   0  0  0  0  0  0  0  0  0  0  0  0
  -13.3552  -24.7005   28.3686 H   0  0  0  0  0  0  0  0  0  0  0  0
  -10.9310  -24.6315   26.4854 H   0  0  0  0  0  0  0  0  0  0  0  0
  -12.6527  -24.5892   26.0452 H   0  0  0  0  0  0  0  0  0  0  0  0
  -12.3258  -22.4842   26.2063 H   0  0  0  0  0  0  0  0  0  0  0  0
  -10.3795  -24.3290   29.0588 H   0  0  0  0  0  0  0  0  0  0  0  0
  -11.7589  -23.3719   29.5139 H   0  0  0  0  0  0  0  0  0  0  0  0
  1  2  2  0
  2  3  1  0
  3  4  2  0
  4  5  1  0
  5  6  2  0
  6  7  1  0
  7  8  1  0
  8  9  2  0
  9 10  1  0
 10 11  2  0
  9 12  1  0
 12 13  1  0
 13 14  1  0
 14 15  1  0
 15 16  1  0
  2 17  1  0
 17 18  1  0
 18 19  1  0
 19 20  1  0
 20 21  1  0
 21 22  1  0
 20 23  1  0
 11  3  1  0
 23 17  1  0
 10  6  1  0
 16  8  1  0
  4 24  1  0
  5 25  1  0
  7 26  1  0
 11 27  1  0
 12 28  1  0
 12 29  1  0
 13 30  1  0
 13 31  1  0
 14 32  1  0
 14 33  1  0
 15 34  1  0
 15 35  1  0
 16 36  1  0
 16 37  1  0
 18 38  1  0
 18 39  1  0
 19 40  1  0
 19 41  1  0
 20 42  1  0
 21 43  1  0
 21 44  1  0
 22 45  1  0
 23 46  1  0
 23 47  1  0
M  END
>  <Energy>  (62) 
99.026329841817301

>  <compound_id>  (62) 
51704

>  <target_id>  (62) 
1

>  <reference_id>  (62) 
39

>  <inspiration_ids>  (62) 
[3, 39]

>  <energy_score>  (62) 
31.270833530509492

>  <distance_score>  (62) 
5.082558866604317

>  <path>  (62) 
/opt/xchem-fragalysis-2/maxwin/BulkDock/SCRATCH/511021/C51704-P39/C51704-P39.minimised.mol

>  <scratch_subdir>  (62) 
/opt/xchem-fragalysis-2/maxwin/BulkDock/SCRATCH/511021/C51704-P39

>  <fragmenstein_runtime>  (62) 
19.764469146728516

>  <fragmenstein_outcome>  (62) 
too moved

>  <fragmenstein_mode>  (62) 
expansion

>  <fragmenstein_error>  (62) 


$$$$
C51687-P3
     RDKit          3D

 49 52  0  0  0  0  0  0  0  0999 V2000
  -15.2064  -24.5008   26.1928 C   0  0  0  0  0  0  0  0  0  0  0  0
  -13.9605  -24.1655   25.3816 C   0  0  0  0  0  0  0  0  0  0  0  0
  -13.5652  -22.6571   25.4825 C   0  0  0  0  0  0  0  0  0  0  0  0
  -12.6834  -22.1772   24.3691 C   0  0  0  0  0  0  0  0  0  0  0  0
  -12.5172  -20.8421   24.9535 C   0  0  0  0  0  0  0  0  0  0  0  0
  -12.6165  -21.2172   26.4276 C   0  0  0  0  0  0  0  0  0  0  0  0
  -12.8445  -22.7036   26.7543 N   0  0  0  0  0  0  0  0  0  0  0  0
  -11.6371  -23.3095   27.0947 C   0  0  0  0  0  0  0  0  0  0  0  0
  -10.8296  -23.8712   26.4164 O   0  0  0  0  0  0  0  0  0  0  0  0
  -11.4603  -23.2988   28.5397 C   0  0  0  0  0  0  0  0  0  0  0  0
  -10.5272  -22.6918   29.3549 C   0  0  0  0  0  0  0  0  0  0  0  0
  -10.2381  -23.2812   30.6013 C   0  0  0  0  0  0  0  0  0  0  0  0
  -10.9179  -24.4710   30.9421 C   0  0  0  0  0  0  0  0  0  0  0  0
  -10.8017  -25.3252   32.0129 N   0  0  0  0  0  0  0  0  0  0  0  0
  -11.7880  -26.3037   31.9688 C   0  0  0  0  0  0  0  0  0  0  0  0
  -12.5071  -26.1264   30.8106 C   0  0  0  0  0  0  0  0  0  0  0  0
  -11.9326  -25.0102   30.1658 C   0  0  0  0  0  0  0  0  0  0  0  0
  -12.2257  -24.3960   28.9704 C   0  0  0  0  0  0  0  0  0  0  0  0
  -13.6618  -26.9407   30.3085 C   0  0  0  0  0  0  0  0  0  0  0  0
  -13.6207  -28.4026   30.7345 C   0  0  0  0  0  0  0  0  0  0  0  0
  -14.0283  -28.6416   32.1906 C   0  0  0  0  0  0  0  0  0  0  0  0
  -13.3877  -27.7356   33.2457 C   0  0  0  0  0  0  0  0  0  0  0  0
  -11.9262  -27.4137   32.9607 C   0  0  0  0  0  0  0  0  0  0  0  0
  -15.4323  -25.5689   26.1117 H   0  0  0  0  0  0  0  0  0  0  0  0
  -16.0739  -23.9447   25.8239 H   0  0  0  0  0  0  0  0  0  0  0  0
  -15.0769  -24.2634   27.2528 H   0  0  0  0  0  0  0  0  0  0  0  0
  -13.1701  -24.8301   25.7523 H   0  0  0  0  0  0  0  0  0  0  0  0
  -14.0886  -24.4850   24.3643 H   0  0  0  0  0  0  0  0  0  0  0  0
  -14.5166  -22.1003   25.5572 H   0  0  0  0  0  0  0  0  0  0  0  0
  -13.1464  -22.1802   23.3886 H   0  0  0  0  0  0  0  0  0  0  0  0
  -11.7072  -22.6589   24.3142 H   0  0  0  0  0  0  0  0  0  0  0  0
  -13.3505  -20.2108   24.6688 H   0  0  0  0  0  0  0  0  0  0  0  0
  -11.6209  -20.3301   24.6234 H   0  0  0  0  0  0  0  0  0  0  0  0
  -11.6853  -20.9108   26.9234 H   0  0  0  0  0  0  0  0  0  0  0  0
  -13.3707  -20.6360   26.9382 H   0  0  0  0  0  0  0  0  0  0  0  0
   -9.9564  -21.8433   28.9958 H   0  0  0  0  0  0  0  0  0  0  0  0
   -9.4643  -22.8730   31.2464 H   0  0  0  0  0  0  0  0  0  0  0  0
  -10.0909  -25.2269   32.7310 H   0  0  0  0  0  0  0  0  0  0  0  0
  -12.9626  -24.8555   28.3156 H   0  0  0  0  0  0  0  0  0  0  0  0
  -13.6608  -26.9181   29.2118 H   0  0  0  0  0  0  0  0  0  0  0  0
  -14.6003  -26.4747   30.6324 H   0  0  0  0  0  0  0  0  0  0  0  0
  -14.3110  -28.9730   30.1001 H   0  0  0  0  0  0  0  0  0  0  0  0
  -12.6248  -28.8254   30.5502 H   0  0  0  0  0  0  0  0  0  0  0  0
  -13.7935  -29.6857   32.4348 H   0  0  0  0  0  0  0  0  0  0  0  0
  -15.1185  -28.5534   32.2795 H   0  0  0  0  0  0  0  0  0  0  0  0
  -13.4590  -28.2476   34.2135 H   0  0  0  0  0  0  0  0  0  0  0  0
  -13.9807  -26.8192   33.3432 H   0  0  0  0  0  0  0  0  0  0  0  0
  -11.4112  -27.1665   33.8817 H   0  0  0  0  0  0  0  0  0  0  0  0
  -11.4236  -28.3075   32.5825 H   0  0  0  0  0  0  0  0  0  0  0  0
  1  2  1  0
  2  3  1  0
  3  4  1  0
  4  5  1  0
  5  6  1  0
  6  7  1  0
  7  8  1  0
  8  9  2  0
  8 10  1  0
 10 11  2  0
 11 12  1  0
 12 13  2  0
 13 14  1  0
 14 15  1  0
 15 16  2  0
 16 17  1  0
 17 18  2  0
 16 19  1  0
 19 20  1  0
 20 21  1  0
 21 22  1  0
 22 23  1  0
  7  3  1  0
 18 10  1  0
 17 13  1  0
 23 15  1  0
  1 24  1  0
  1 25  1  0
  1 26  1  0
  2 27  1  0
  2 28  1  0
  3 29  1  0
  4 30  1  0
  4 31  1  0
  5 32  1  0
  5 33  1  0
  6 34  1  0
  6 35  1  0
 11 36  1  0
 12 37  1  0
 14 38  1  0
 18 39  1  0
 19 40  1  0
 19 41  1  0
 20 42  1  0
 20 43  1  0
 21 44  1  0
 21 45  1  0
 22 46  1  0
 22 47  1  0
 23 48  1  0
 23 49  1  0
M  END
>  <Energy>  (63) 
123.14306769009492

>  <compound_id>  (63) 
51687

>  <target_id>  (63) 
1

>  <reference_id>  (63) 
3

>  <inspiration_ids>  (63) 
[3, 39]

>  <energy_score>  (63) 
39.12069745543744

>  <distance_score>  (63) 
3.7305694601028807

>  <path>  (63) 
/opt/xchem-fragalysis-2/maxwin/BulkDock/SCRATCH/511021/C51687-P3/C51687-P3.minimised.mol

>  <scratch_subdir>  (63) 
/opt/xchem-fragalysis-2/maxwin/BulkDock/SCRATCH/511021/C51687-P3

>  <fragmenstein_runtime>  (63) 
17.564627170562744

>  <fragmenstein_outcome>  (63) 
too moved

>  <fragmenstein_mode>  (63) 
expansion

>  <fragmenstein_error>  (63) 


$$$$
C51687-P39
     RDKit          3D

 49 52  0  0  0  0  0  0  0  0999 V2000
  -11.8882  -27.2165   29.2478 C   0  0  0  0  0  0  0  0  0  0  0  0
  -11.4332  -26.5942   27.9412 C   0  0  0  0  0  0  0  0  0  0  0  0
  -12.3738  -25.4812   27.4698 C   0  0  0  0  0  0  0  0  0  0  0  0
  -12.1572  -25.2403   25.9887 C   0  0  0  0  0  0  0  0  0  0  0  0
  -12.3402  -23.7933   25.9957 C   0  0  0  0  0  0  0  0  0  0  0  0
  -11.7738  -23.5824   27.3729 C   0  0  0  0  0  0  0  0  0  0  0  0
  -12.4164  -24.3411   28.5024 N   0  0  0  0  0  0  0  0  0  0  0  0
  -11.6737  -24.1474   29.7075 C   0  0  0  0  0  0  0  0  0  0  0  0
  -10.7617  -24.7802   30.1765 O   0  0  0  0  0  0  0  0  0  0  0  0
  -12.1317  -23.0694   30.5962 C   0  0  0  0  0  0  0  0  0  0  0  0
  -11.3734  -21.9201   30.6191 C   0  0  0  0  0  0  0  0  0  0  0  0
  -11.2194  -21.2417   31.8176 C   0  0  0  0  0  0  0  0  0  0  0  0
  -12.2122  -21.4165   32.7680 C   0  0  0  0  0  0  0  0  0  0  0  0
  -12.5146  -20.6630   33.8783 N   0  0  0  0  0  0  0  0  0  0  0  0
  -13.8609  -20.8078   34.0972 C   0  0  0  0  0  0  0  0  0  0  0  0
  -14.2021  -22.0525   33.5892 C   0  0  0  0  0  0  0  0  0  0  0  0
  -13.1854  -22.3908   32.6536 C   0  0  0  0  0  0  0  0  0  0  0  0
  -12.9880  -23.3585   31.6601 C   0  0  0  0  0  0  0  0  0  0  0  0
  -15.5237  -22.6973   33.7767 C   0  0  0  0  0  0  0  0  0  0  0  0
  -16.6294  -21.9640   33.0257 C   0  0  0  0  0  0  0  0  0  0  0  0
  -16.6728  -20.4406   33.2257 C   0  0  0  0  0  0  0  0  0  0  0  0
  -16.1958  -19.9513   34.5998 C   0  0  0  0  0  0  0  0  0  0  0  0
  -14.6830  -19.7236   34.7033 C   0  0  0  0  0  0  0  0  0  0  0  0
  -12.4770  -26.5465   29.8653 H   0  0  0  0  0  0  0  0  0  0  0  0
  -11.0264  -27.4663   29.8666 H   0  0  0  0  0  0  0  0  0  0  0  0
  -12.4927  -28.1086   29.0611 H   0  0  0  0  0  0  0  0  0  0  0  0
  -10.4144  -26.2026   28.0502 H   0  0  0  0  0  0  0  0  0  0  0  0
  -11.3811  -27.3766   27.1824 H   0  0  0  0  0  0  0  0  0  0  0  0
  -13.3951  -25.8846   27.5523 H   0  0  0  0  0  0  0  0  0  0  0  0
  -12.8816  -25.7750   25.3672 H   0  0  0  0  0  0  0  0  0  0  0  0
  -11.1524  -25.5190   25.6548 H   0  0  0  0  0  0  0  0  0  0  0  0
  -13.3957  -23.5597   25.8958 H   0  0  0  0  0  0  0  0  0  0  0  0
  -11.7906  -23.2884   25.2024 H   0  0  0  0  0  0  0  0  0  0  0  0
  -10.6835  -23.7594   27.4031 H   0  0  0  0  0  0  0  0  0  0  0  0
  -11.8769  -22.5217   27.6334 H   0  0  0  0  0  0  0  0  0  0  0  0
  -10.7828  -21.6447   29.7556 H   0  0  0  0  0  0  0  0  0  0  0  0
  -10.4752  -20.4757   31.9480 H   0  0  0  0  0  0  0  0  0  0  0  0
  -11.9665  -19.8699   34.1843 H   0  0  0  0  0  0  0  0  0  0  0  0
  -13.5060  -24.2930   31.6977 H   0  0  0  0  0  0  0  0  0  0  0  0
  -15.4922  -23.7371   33.4626 H   0  0  0  0  0  0  0  0  0  0  0  0
  -15.7628  -22.7295   34.8458 H   0  0  0  0  0  0  0  0  0  0  0  0
  -16.5459  -22.1585   31.9517 H   0  0  0  0  0  0  0  0  0  0  0  0
  -17.5913  -22.3900   33.3378 H   0  0  0  0  0  0  0  0  0  0  0  0
  -17.7108  -20.1170   33.0765 H   0  0  0  0  0  0  0  0  0  0  0  0
  -16.0954  -19.9498   32.4333 H   0  0  0  0  0  0  0  0  0  0  0  0
  -16.5372  -20.6373   35.3836 H   0  0  0  0  0  0  0  0  0  0  0  0
  -16.6844  -18.9919   34.8139 H   0  0  0  0  0  0  0  0  0  0  0  0
  -14.4467  -18.7923   34.1853 H   0  0  0  0  0  0  0  0  0  0  0  0
  -14.3896  -19.5189   35.7337 H   0  0  0  0  0  0  0  0  0  0  0  0
  1  2  1  0
  2  3  1  0
  3  4  1  0
  4  5  1  0
  5  6  1  0
  6  7  1  0
  7  8  1  0
  8  9  2  0
  8 10  1  0
 10 11  2  0
 11 12  1  0
 12 13  2  0
 13 14  1  0
 14 15  1  0
 15 16  2  0
 16 17  1  0
 17 18  2  0
 16 19  1  0
 19 20  1  0
 20 21  1  0
 21 22  1  0
 22 23  1  0
  7  3  1  0
 18 10  1  0
 17 13  1  0
 23 15  1  0
  1 24  1  0
  1 25  1  0
  1 26  1  0
  2 27  1  0
  2 28  1  0
  3 29  1  0
  4 30  1  0
  4 31  1  0
  5 32  1  0
  5 33  1  0
  6 34  1  0
  6 35  1  0
 11 36  1  0
 12 37  1  0
 14 38  1  0
 18 39  1  0
 19 40  1  0
 19 41  1  0
 20 42  1  0
 20 43  1  0
 21 44  1  0
 21 45  1  0
 22 46  1  0
 22 47  1  0
 23 48  1  0
 23 49  1  0
M  END
>  <Energy>  (64) 
135.62172237113964

>  <compound_id>  (64) 
51687

>  <target_id>  (64) 
1

>  <reference_id>  (64) 
39

>  <inspiration_ids>  (64) 
[3, 39]

>  <energy_score>  (64) 
51.59935213648191

>  <distance_score>  (64) 
4.275887932232424

>  <path>  (64) 
/opt/xchem-fragalysis-2/maxwin/BulkDock/SCRATCH/511021/C51687-P39/C51687-P39.minimised.mol

>  <scratch_subdir>  (64) 
/opt/xchem-fragalysis-2/maxwin/BulkDock/SCRATCH/511021/C51687-P39

>  <fragmenstein_runtime>  (64) 
20.207711458206177

>  <fragmenstein_outcome>  (64) 
too moved

>  <fragmenstein_mode>  (64) 
expansion

>  <fragmenstein_error>  (64) 


$$$$
C51698-P3
     RDKit          3D

 48 51  0  0  0  0  0  0  0  0999 V2000
  -15.8454  -27.9329   30.6440 N   0  0  0  0  0  0  0  0  0  0  0  0
  -15.0831  -26.4586   30.3961 S   0  0  0  0  0  0  0  0  0  0  0  0
  -15.5333  -25.6668   31.5174 O   0  0  0  0  0  0  0  0  0  0  0  0
  -13.6974  -26.8462   30.2563 O   0  0  0  0  0  0  0  0  0  0  0  0
  -15.8697  -25.8895   28.8324 C   0  0  0  0  0  0  0  0  0  0  0  0
  -15.3459  -26.3522   27.4433 C   0  0  0  0  0  0  0  0  0  0  0  0
  -14.2701  -27.3631   27.4228 C   0  0  0  0  0  0  0  0  0  0  0  0
  -13.0794  -26.4455   27.2276 C   0  0  0  0  0  0  0  0  0  0  0  0
  -13.2982  -24.9276   27.2536 N   0  0  0  0  0  0  0  0  0  0  0  0
  -13.0514  -24.4171   28.5378 C   0  0  0  0  0  0  0  0  0  0  0  0
  -13.7926  -24.2506   29.4674 O   0  0  0  0  0  0  0  0  0  0  0  0
  -11.6781  -24.1061   28.9317 C   0  0  0  0  0  0  0  0  0  0  0  0
  -11.1713  -25.0720   29.8147 C   0  0  0  0  0  0  0  0  0  0  0  0
  -10.3507  -24.7179   30.8634 C   0  0  0  0  0  0  0  0  0  0  0  0
  -10.0476  -23.3940   31.0175 C   0  0  0  0  0  0  0  0  0  0  0  0
   -9.3677  -22.8236   32.0593 N   0  0  0  0  0  0  0  0  0  0  0  0
   -9.9123  -21.5949   32.1939 C   0  0  0  0  0  0  0  0  0  0  0  0
  -10.5749  -21.2497   31.0391 C   0  0  0  0  0  0  0  0  0  0  0  0
  -10.6087  -22.4026   30.2207 C   0  0  0  0  0  0  0  0  0  0  0  0
  -11.3459  -22.7505   29.0703 C   0  0  0  0  0  0  0  0  0  0  0  0
  -11.3733  -20.0055   30.9374 C   0  0  0  0  0  0  0  0  0  0  0  0
  -11.2405  -19.1134   32.1717 C   0  0  0  0  0  0  0  0  0  0  0  0
  -11.1337  -19.9256   33.4640 C   0  0  0  0  0  0  0  0  0  0  0  0
   -9.9127  -20.8496   33.4462 C   0  0  0  0  0  0  0  0  0  0  0  0
  -14.5685  -25.3217   26.5968 C   0  0  0  0  0  0  0  0  0  0  0  0
  -15.1412  -28.6650   30.7506 H   0  0  0  0  0  0  0  0  0  0  0  0
  -16.4505  -27.8522   31.4655 H   0  0  0  0  0  0  0  0  0  0  0  0
  -15.9642  -24.8002   28.8799 H   0  0  0  0  0  0  0  0  0  0  0  0
  -16.9062  -26.2417   28.9321 H   0  0  0  0  0  0  0  0  0  0  0  0
  -16.2149  -26.6878   26.8642 H   0  0  0  0  0  0  0  0  0  0  0  0
  -14.3636  -28.0202   26.5477 H   0  0  0  0  0  0  0  0  0  0  0  0
  -14.2042  -28.0324   28.2789 H   0  0  0  0  0  0  0  0  0  0  0  0
  -12.6015  -26.6596   26.2563 H   0  0  0  0  0  0  0  0  0  0  0  0
  -12.3006  -26.7157   27.9449 H   0  0  0  0  0  0  0  0  0  0  0  0
  -11.5359  -26.0928   29.8065 H   0  0  0  0  0  0  0  0  0  0  0  0
  -10.1220  -25.3855   31.6711 H   0  0  0  0  0  0  0  0  0  0  0  0
   -8.8839  -23.3426   32.7871 H   0  0  0  0  0  0  0  0  0  0  0  0
  -11.8870  -21.9889   28.5184 H   0  0  0  0  0  0  0  0  0  0  0  0
  -11.1566  -19.4519   30.0191 H   0  0  0  0  0  0  0  0  0  0  0  0
  -12.3992  -20.3428   30.9064 H   0  0  0  0  0  0  0  0  0  0  0  0
  -10.3699  -18.4652   32.0399 H   0  0  0  0  0  0  0  0  0  0  0  0
  -12.1116  -18.4655   32.2653 H   0  0  0  0  0  0  0  0  0  0  0  0
  -11.1552  -19.2684   34.3320 H   0  0  0  0  0  0  0  0  0  0  0  0
  -12.0304  -20.5227   33.5813 H   0  0  0  0  0  0  0  0  0  0  0  0
   -8.9679  -20.3050   33.4549 H   0  0  0  0  0  0  0  0  0  0  0  0
   -9.9451  -21.5279   34.3054 H   0  0  0  0  0  0  0  0  0  0  0  0
  -14.4093  -25.6147   25.5448 H   0  0  0  0  0  0  0  0  0  0  0  0
  -15.1678  -24.4024   26.5532 H   0  0  0  0  0  0  0  0  0  0  0  0
  1  2  1  0
  2  3  2  0
  2  4  2  0
  2  5  1  0
  5  6  1  0
  6  7  1  0
  7  8  1  0
  8  9  1  0
  9 10  1  0
 10 11  2  0
 10 12  1  0
 12 13  2  0
 13 14  1  0
 14 15  2  0
 15 16  1  0
 16 17  1  0
 17 18  2  0
 18 19  1  0
 19 20  2  0
 18 21  1  0
 21 22  1  0
 22 23  1  0
 23 24  1  0
  9 25  1  0
 25  6  1  0
 20 12  1  0
 19 15  1  0
 24 17  1  0
  1 26  1  0
  1 27  1  0
  5 28  1  0
  5 29  1  0
  6 30  1  0
  7 31  1  0
  7 32  1  0
  8 33  1  0
  8 34  1  0
 13 35  1  0
 14 36  1  0
 16 37  1  0
 20 38  1  0
 21 39  1  0
 21 40  1  0
 22 41  1  0
 22 42  1  0
 23 43  1  0
 23 44  1  0
 24 45  1  0
 24 46  1  0
 25 47  1  0
 25 48  1  0
M  END
>  <Energy>  (65) 
55.068621558653561

>  <compound_id>  (65) 
51698

>  <target_id>  (65) 
1

>  <reference_id>  (65) 
3

>  <inspiration_ids>  (65) 
[3, 39]

>  <energy_score>  (65) 
54.59989649509767

>  <distance_score>  (65) 
3.884538154194233

>  <path>  (65) 
/opt/xchem-fragalysis-2/maxwin/BulkDock/SCRATCH/511021/C51698-P3/C51698-P3.minimised.mol

>  <scratch_subdir>  (65) 
/opt/xchem-fragalysis-2/maxwin/BulkDock/SCRATCH/511021/C51698-P3

>  <fragmenstein_runtime>  (65) 
30.193683385849

>  <fragmenstein_outcome>  (65) 
too moved

>  <fragmenstein_mode>  (65) 
expansion

>  <fragmenstein_error>  (65) 


$$$$
C51698-P39
     RDKit          3D

 48 51  0  0  0  0  0  0  0  0999 V2000
   -9.2156  -26.0341   31.8109 N   0  0  0  0  0  0  0  0  0  0  0  0
  -10.6437  -26.0007   30.9535 S   0  0  0  0  0  0  0  0  0  0  0  0
  -11.2857  -24.8439   31.5133 O   0  0  0  0  0  0  0  0  0  0  0  0
  -11.2416  -27.3117   31.0453 O   0  0  0  0  0  0  0  0  0  0  0  0
   -9.9654  -25.8016   29.3013 C   0  0  0  0  0  0  0  0  0  0  0  0
  -10.8394  -25.3610   28.1302 C   0  0  0  0  0  0  0  0  0  0  0  0
  -12.2986  -25.6331   28.2382 C   0  0  0  0  0  0  0  0  0  0  0  0
  -12.7544  -24.2440   28.6488 C   0  0  0  0  0  0  0  0  0  0  0  0
  -11.6620  -23.4871   29.3461 N   0  0  0  0  0  0  0  0  0  0  0  0
  -12.1304  -22.2506   29.7860 C   0  0  0  0  0  0  0  0  0  0  0  0
  -12.1352  -21.1827   29.2444 O   0  0  0  0  0  0  0  0  0  0  0  0
  -12.6529  -22.2548   31.1854 C   0  0  0  0  0  0  0  0  0  0  0  0
  -11.8276  -21.7502   32.1806 C   0  0  0  0  0  0  0  0  0  0  0  0
  -12.3796  -21.2315   33.3570 C   0  0  0  0  0  0  0  0  0  0  0  0
  -13.7655  -21.2004   33.4868 C   0  0  0  0  0  0  0  0  0  0  0  0
  -14.5342  -20.5257   34.4023 N   0  0  0  0  0  0  0  0  0  0  0  0
  -15.8528  -20.7142   34.1247 C   0  0  0  0  0  0  0  0  0  0  0  0
  -15.9462  -21.4908   32.9881 C   0  0  0  0  0  0  0  0  0  0  0  0
  -14.6204  -21.7567   32.5476 C   0  0  0  0  0  0  0  0  0  0  0  0
  -14.0378  -22.3118   31.3940 C   0  0  0  0  0  0  0  0  0  0  0  0
  -17.2628  -21.8461   32.3833 C   0  0  0  0  0  0  0  0  0  0  0  0
  -18.4184  -21.6099   33.3761 C   0  0  0  0  0  0  0  0  0  0  0  0
  -18.2860  -20.2654   34.1126 C   0  0  0  0  0  0  0  0  0  0  0  0
  -16.9837  -20.1795   34.9279 C   0  0  0  0  0  0  0  0  0  0  0  0
  -10.9248  -23.8630   28.1218 C   0  0  0  0  0  0  0  0  0  0  0  0
   -9.0793  -26.9706   32.2259 H   0  0  0  0  0  0  0  0  0  0  0  0
   -9.2375  -25.3173   32.5355 H   0  0  0  0  0  0  0  0  0  0  0  0
   -9.5741  -26.7868   29.0547 H   0  0  0  0  0  0  0  0  0  0  0  0
   -9.1038  -25.1381   29.3920 H   0  0  0  0  0  0  0  0  0  0  0  0
  -10.4173  -25.7340   27.1936 H   0  0  0  0  0  0  0  0  0  0  0  0
  -12.7519  -25.9123   27.2809 H   0  0  0  0  0  0  0  0  0  0  0  0
  -12.5396  -26.4137   28.9579 H   0  0  0  0  0  0  0  0  0  0  0  0
  -13.5938  -24.3302   29.3409 H   0  0  0  0  0  0  0  0  0  0  0  0
  -13.1502  -23.6671   27.8072 H   0  0  0  0  0  0  0  0  0  0  0  0
  -10.7703  -21.6277   31.9794 H   0  0  0  0  0  0  0  0  0  0  0  0
  -11.7888  -20.6806   34.0711 H   0  0  0  0  0  0  0  0  0  0  0  0
  -14.1583  -19.9597   35.1497 H   0  0  0  0  0  0  0  0  0  0  0  0
  -14.6880  -22.6395   30.6072 H   0  0  0  0  0  0  0  0  0  0  0  0
  -17.4207  -21.2209   31.4966 H   0  0  0  0  0  0  0  0  0  0  0  0
  -17.2803  -22.8919   32.0695 H   0  0  0  0  0  0  0  0  0  0  0  0
  -19.3727  -21.6491   32.8388 H   0  0  0  0  0  0  0  0  0  0  0  0
  -18.4342  -22.4202   34.1165 H   0  0  0  0  0  0  0  0  0  0  0  0
  -18.3105  -19.4552   33.3731 H   0  0  0  0  0  0  0  0  0  0  0  0
  -19.1437  -20.1160   34.7780 H   0  0  0  0  0  0  0  0  0  0  0  0
  -16.7989  -19.1416   35.2251 H   0  0  0  0  0  0  0  0  0  0  0  0
  -17.0865  -20.7760   35.8421 H   0  0  0  0  0  0  0  0  0  0  0  0
  -11.3053  -23.3995   27.1944 H   0  0  0  0  0  0  0  0  0  0  0  0
   -9.9264  -23.4200   28.2098 H   0  0  0  0  0  0  0  0  0  0  0  0
  1  2  1  0
  2  3  2  0
  2  4  2  0
  2  5  1  0
  5  6  1  0
  6  7  1  0
  7  8  1  0
  8  9  1  0
  9 10  1  0
 10 11  2  0
 10 12  1  0
 12 13  2  0
 13 14  1  0
 14 15  2  0
 15 16  1  0
 16 17  1  0
 17 18  2  0
 18 19  1  0
 19 20  2  0
 18 21  1  0
 21 22  1  0
 22 23  1  0
 23 24  1  0
  9 25  1  0
 25  6  1  0
 20 12  1  0
 19 15  1  0
 24 17  1  0
  1 26  1  0
  1 27  1  0
  5 28  1  0
  5 29  1  0
  6 30  1  0
  7 31  1  0
  7 32  1  0
  8 33  1  0
  8 34  1  0
 13 35  1  0
 14 36  1  0
 16 37  1  0
 20 38  1  0
 21 39  1  0
 21 40  1  0
 22 41  1  0
 22 42  1  0
 23 43  1  0
 23 44  1  0
 24 45  1  0
 24 46  1  0
 25 47  1  0
 25 48  1  0
M  END
>  <Energy>  (66) 
19.29712582543079

>  <compound_id>  (66) 
51698

>  <target_id>  (66) 
1

>  <reference_id>  (66) 
39

>  <inspiration_ids>  (66) 
[3, 39]

>  <energy_score>  (66) 
18.82840076187435

>  <distance_score>  (66) 
3.617231517218304

>  <path>  (66) 
/opt/xchem-fragalysis-2/maxwin/BulkDock/SCRATCH/511021/C51698-P39/C51698-P39.minimised.mol

>  <scratch_subdir>  (66) 
/opt/xchem-fragalysis-2/maxwin/BulkDock/SCRATCH/511021/C51698-P39

>  <fragmenstein_runtime>  (66) 
39.18495774269104

>  <fragmenstein_outcome>  (66) 
too moved

>  <fragmenstein_mode>  (66) 
expansion

>  <fragmenstein_error>  (66) 


$$$$
C51705-P3
     RDKit          3D

 51 54  0  0  0  0  0  0  0  0999 V2000
  -11.3530  -26.3097   33.1834 O   0  0  0  0  0  0  0  0  0  0  0  0
  -11.5825  -25.9238   32.1081 C   0  0  0  0  0  0  0  0  0  0  0  0
  -10.9787  -24.7328   31.3167 N   0  0  0  0  0  0  0  0  0  0  0  0
  -10.0280  -23.7074   31.7291 C   0  0  0  0  0  0  0  0  0  0  0  0
   -9.6758  -22.8157   30.5517 C   0  0  0  0  0  0  0  0  0  0  0  0
  -10.8210  -22.0092   29.9430 C   0  0  0  0  0  0  0  0  0  0  0  0
  -10.7835  -21.9450   28.4745 N   0  0  0  0  0  0  0  0  0  0  0  0
  -11.4582  -23.0734   27.8347 C   0  0  0  0  0  0  0  0  0  0  0  0
  -11.7401  -22.5855   26.4312 C   0  0  0  0  0  0  0  0  0  0  0  0
  -12.1955  -21.1676   26.6846 C   0  0  0  0  0  0  0  0  0  0  0  0
  -11.4522  -20.7440   27.9505 C   0  0  0  0  0  0  0  0  0  0  0  0
  -12.5051  -26.6836   31.2738 C   0  0  0  0  0  0  0  0  0  0  0  0
  -11.8689  -27.7872   30.7682 C   0  0  0  0  0  0  0  0  0  0  0  0
  -11.8323  -28.0048   29.4062 C   0  0  0  0  0  0  0  0  0  0  0  0
  -12.5315  -27.1143   28.6128 C   0  0  0  0  0  0  0  0  0  0  0  0
  -12.7177  -27.0803   27.2530 N   0  0  0  0  0  0  0  0  0  0  0  0
  -13.5144  -26.0185   26.9729 C   0  0  0  0  0  0  0  0  0  0  0  0
  -13.8425  -25.3668   28.1247 C   0  0  0  0  0  0  0  0  0  0  0  0
  -13.2953  -26.0917   29.1658 C   0  0  0  0  0  0  0  0  0  0  0  0
  -13.4232  -25.9692   30.5407 C   0  0  0  0  0  0  0  0  0  0  0  0
  -14.7775  -24.2283   28.1538 C   0  0  0  0  0  0  0  0  0  0  0  0
  -15.9341  -24.4240   27.2031 C   0  0  0  0  0  0  0  0  0  0  0  0
  -15.6917  -25.4911   26.1224 C   0  0  0  0  0  0  0  0  0  0  0  0
  -14.2231  -25.7382   25.7278 C   0  0  0  0  0  0  0  0  0  0  0  0
  -11.3485  -24.7306   30.3727 H   0  0  0  0  0  0  0  0  0  0  0  0
   -9.1415  -24.2231   32.1101 H   0  0  0  0  0  0  0  0  0  0  0  0
  -10.4137  -23.0865   32.5365 H   0  0  0  0  0  0  0  0  0  0  0  0
   -8.8590  -22.1525   30.8467 H   0  0  0  0  0  0  0  0  0  0  0  0
   -9.2733  -23.4913   29.8213 H   0  0  0  0  0  0  0  0  0  0  0  0
  -10.7656  -20.9995   30.3686 H   0  0  0  0  0  0  0  0  0  0  0  0
  -11.7752  -22.4039   30.2639 H   0  0  0  0  0  0  0  0  0  0  0  0
  -10.8972  -24.0005   27.8312 H   0  0  0  0  0  0  0  0  0  0  0  0
  -12.3790  -23.2620   28.3728 H   0  0  0  0  0  0  0  0  0  0  0  0
  -12.5059  -23.1709   25.9219 H   0  0  0  0  0  0  0  0  0  0  0  0
  -10.8301  -22.6070   25.8223 H   0  0  0  0  0  0  0  0  0  0  0  0
  -13.2690  -21.1795   26.8700 H   0  0  0  0  0  0  0  0  0  0  0  0
  -12.0311  -20.5074   25.8311 H   0  0  0  0  0  0  0  0  0  0  0  0
  -10.7013  -19.9844   27.7445 H   0  0  0  0  0  0  0  0  0  0  0  0
  -12.1442  -20.2952   28.6609 H   0  0  0  0  0  0  0  0  0  0  0  0
  -11.3205  -28.4277   31.4443 H   0  0  0  0  0  0  0  0  0  0  0  0
  -11.2850  -28.8438   28.9914 H   0  0  0  0  0  0  0  0  0  0  0  0
  -12.4361  -27.8179   26.6160 H   0  0  0  0  0  0  0  0  0  0  0  0
  -14.0611  -25.2239   30.9869 H   0  0  0  0  0  0  0  0  0  0  0  0
  -14.2587  -23.3424   27.7942 H   0  0  0  0  0  0  0  0  0  0  0  0
  -15.1593  -24.0418   29.1608 H   0  0  0  0  0  0  0  0  0  0  0  0
  -16.1731  -23.4659   26.7234 H   0  0  0  0  0  0  0  0  0  0  0  0
  -16.8360  -24.7008   27.7645 H   0  0  0  0  0  0  0  0  0  0  0  0
  -16.1144  -26.4392   26.4871 H   0  0  0  0  0  0  0  0  0  0  0  0
  -16.2766  -25.2401   25.2306 H   0  0  0  0  0  0  0  0  0  0  0  0
  -13.8227  -24.8564   25.2255 H   0  0  0  0  0  0  0  0  0  0  0  0
  -14.1804  -26.5852   25.0379 H   0  0  0  0  0  0  0  0  0  0  0  0
  1  2  2  0
  2  3  1  0
  3  4  1  0
  4  5  1  0
  5  6  1  0
  6  7  1  0
  7  8  1  0
  8  9  1  0
  9 10  1  0
 10 11  1  0
  2 12  1  0
 12 13  2  0
 13 14  1  0
 14 15  2  0
 15 16  1  0
 16 17  1  0
 17 18  2  0
 18 19  1  0
 19 20  2  0
 18 21  1  0
 21 22  1  0
 22 23  1  0
 23 24  1  0
 11  7  1  0
 20 12  1  0
 19 15  1  0
 24 17  1  0
  3 25  1  0
  4 26  1  0
  4 27  1  0
  5 28  1  0
  5 29  1  0
  6 30  1  0
  6 31  1  0
  8 32  1  0
  8 33  1  0
  9 34  1  0
  9 35  1  0
 10 36  1  0
 10 37  1  0
 11 38  1  0
 11 39  1  0
 13 40  1  0
 14 41  1  0
 16 42  1  0
 20 43  1  0
 21 44  1  0
 21 45  1  0
 22 46  1  0
 22 47  1  0
 23 48  1  0
 23 49  1  0
 24 50  1  0
 24 51  1  0
M  END
>  <Energy>  (67) 
83.169957358461673

>  <compound_id>  (67) 
51705

>  <target_id>  (67) 
1

>  <reference_id>  (67) 
3

>  <inspiration_ids>  (67) 
[3, 39]

>  <energy_score>  (67) 
19.314736423435136

>  <distance_score>  (67) 
4.812232047679009

>  <path>  (67) 
/opt/xchem-fragalysis-2/maxwin/BulkDock/SCRATCH/511021/C51705-P3/C51705-P3.minimised.mol

>  <scratch_subdir>  (67) 
/opt/xchem-fragalysis-2/maxwin/BulkDock/SCRATCH/511021/C51705-P3

>  <fragmenstein_runtime>  (67) 
11.193950414657593

>  <fragmenstein_outcome>  (67) 
too moved

>  <fragmenstein_mode>  (67) 
expansion

>  <fragmenstein_error>  (67) 


$$$$
C51705-P39
     RDKit          3D

 51 54  0  0  0  0  0  0  0  0999 V2000
   -8.8240  -26.4606   28.1933 O   0  0  0  0  0  0  0  0  0  0  0  0
   -9.7491  -25.7907   28.5088 C   0  0  0  0  0  0  0  0  0  0  0  0
  -10.3153  -25.5340   29.7825 N   0  0  0  0  0  0  0  0  0  0  0  0
   -9.8948  -25.9236   31.0963 C   0  0  0  0  0  0  0  0  0  0  0  0
  -10.9137  -25.3513   32.0658 C   0  0  0  0  0  0  0  0  0  0  0  0
  -11.0689  -23.8326   32.0269 C   0  0  0  0  0  0  0  0  0  0  0  0
  -12.4602  -23.4483   32.1790 N   0  0  0  0  0  0  0  0  0  0  0  0
  -12.9956  -23.6270   33.5222 C   0  0  0  0  0  0  0  0  0  0  0  0
  -14.2973  -22.8400   33.4825 C   0  0  0  0  0  0  0  0  0  0  0  0
  -14.1655  -21.9181   32.2830 C   0  0  0  0  0  0  0  0  0  0  0  0
  -12.7112  -22.0557   31.8696 C   0  0  0  0  0  0  0  0  0  0  0  0
  -10.4238  -24.9713   27.4482 C   0  0  0  0  0  0  0  0  0  0  0  0
  -10.7727  -23.6883   27.8779 C   0  0  0  0  0  0  0  0  0  0  0  0
  -12.1042  -23.4505   28.1166 C   0  0  0  0  0  0  0  0  0  0  0  0
  -12.9258  -24.4604   27.6448 C   0  0  0  0  0  0  0  0  0  0  0  0
  -14.1454  -24.8945   28.0638 N   0  0  0  0  0  0  0  0  0  0  0  0
  -14.6980  -25.7175   27.1205 C   0  0  0  0  0  0  0  0  0  0  0  0
  -13.7898  -25.7525   26.0939 C   0  0  0  0  0  0  0  0  0  0  0  0
  -12.5657  -25.3694   26.6646 C   0  0  0  0  0  0  0  0  0  0  0  0
  -11.2195  -25.6771   26.5452 C   0  0  0  0  0  0  0  0  0  0  0  0
  -14.1652  -26.2202   24.7526 C   0  0  0  0  0  0  0  0  0  0  0  0
  -15.5618  -26.8648   24.6982 C   0  0  0  0  0  0  0  0  0  0  0  0
  -15.9893  -27.4965   26.0280 C   0  0  0  0  0  0  0  0  0  0  0  0
  -16.0226  -26.3979   27.0885 C   0  0  0  0  0  0  0  0  0  0  0  0
  -11.1517  -24.9796   29.6655 H   0  0  0  0  0  0  0  0  0  0  0  0
   -9.8613  -27.0144   31.1351 H   0  0  0  0  0  0  0  0  0  0  0  0
   -8.8976  -25.5223   31.2854 H   0  0  0  0  0  0  0  0  0  0  0  0
  -10.6843  -25.6700   33.0878 H   0  0  0  0  0  0  0  0  0  0  0  0
  -11.8705  -25.7826   31.7536 H   0  0  0  0  0  0  0  0  0  0  0  0
  -10.4091  -23.3569   32.7568 H   0  0  0  0  0  0  0  0  0  0  0  0
  -10.7843  -23.4644   31.0510 H   0  0  0  0  0  0  0  0  0  0  0  0
  -13.1651  -24.6716   33.7807 H   0  0  0  0  0  0  0  0  0  0  0  0
  -12.3302  -23.1886   34.2741 H   0  0  0  0  0  0  0  0  0  0  0  0
  -14.4296  -22.2628   34.4012 H   0  0  0  0  0  0  0  0  0  0  0  0
  -15.1739  -23.4842   33.3827 H   0  0  0  0  0  0  0  0  0  0  0  0
  -14.4535  -20.9011   32.5531 H   0  0  0  0  0  0  0  0  0  0  0  0
  -14.8278  -22.2394   31.4733 H   0  0  0  0  0  0  0  0  0  0  0  0
  -12.5653  -21.8481   30.8094 H   0  0  0  0  0  0  0  0  0  0  0  0
  -12.0714  -21.3855   32.4571 H   0  0  0  0  0  0  0  0  0  0  0  0
  -10.0344  -23.0556   28.3462 H   0  0  0  0  0  0  0  0  0  0  0  0
  -12.4337  -22.6638   28.7758 H   0  0  0  0  0  0  0  0  0  0  0  0
  -14.5539  -24.5441   28.9157 H   0  0  0  0  0  0  0  0  0  0  0  0
  -10.9120  -26.6053   26.0794 H   0  0  0  0  0  0  0  0  0  0  0  0
  -13.3757  -26.8502   24.3622 H   0  0  0  0  0  0  0  0  0  0  0  0
  -14.2252  -25.3398   24.1054 H   0  0  0  0  0  0  0  0  0  0  0  0
  -15.6347  -27.5845   23.8779 H   0  0  0  0  0  0  0  0  0  0  0  0
  -16.2915  -26.0827   24.4416 H   0  0  0  0  0  0  0  0  0  0  0  0
  -16.9868  -27.9379   25.9219 H   0  0  0  0  0  0  0  0  0  0  0  0
  -15.3094  -28.2997   26.3252 H   0  0  0  0  0  0  0  0  0  0  0  0
  -16.3391  -26.8160   28.0442 H   0  0  0  0  0  0  0  0  0  0  0  0
  -16.7908  -25.7170   26.7397 H   0  0  0  0  0  0  0  0  0  0  0  0
  1  2  2  0
  2  3  1  0
  3  4  1  0
  4  5  1  0
  5  6  1  0
  6  7  1  0
  7  8  1  0
  8  9  1  0
  9 10  1  0
 10 11  1  0
  2 12  1  0
 12 13  2  0
 13 14  1  0
 14 15  2  0
 15 16  1  0
 16 17  1  0
 17 18  2  0
 18 19  1  0
 19 20  2  0
 18 21  1  0
 21 22  1  0
 22 23  1  0
 23 24  1  0
 11  7  1  0
 20 12  1  0
 19 15  1  0
 24 17  1  0
  3 25  1  0
  4 26  1  0
  4 27  1  0
  5 28  1  0
  5 29  1  0
  6 30  1  0
  6 31  1  0
  8 32  1  0
  8 33  1  0
  9 34  1  0
  9 35  1  0
 10 36  1  0
 10 37  1  0
 11 38  1  0
 11 39  1  0
 13 40  1  0
 14 41  1  0
 16 42  1  0
 20 43  1  0
 21 44  1  0
 21 45  1  0
 22 46  1  0
 22 47  1  0
 23 48  1  0
 23 49  1  0
 24 50  1  0
 24 51  1  0
M  END
>  <Energy>  (68) 
96.816985152148675

>  <compound_id>  (68) 
51705

>  <target_id>  (68) 
1

>  <reference_id>  (68) 
39

>  <inspiration_ids>  (68) 
[3, 39]

>  <energy_score>  (68) 
51.626565864274255

>  <distance_score>  (68) 
6.076343943840189

>  <path>  (68) 
/opt/xchem-fragalysis-2/maxwin/BulkDock/SCRATCH/511021/C51705-P39/C51705-P39.minimised.mol

>  <scratch_subdir>  (68) 
/opt/xchem-fragalysis-2/maxwin/BulkDock/SCRATCH/511021/C51705-P39

>  <fragmenstein_runtime>  (68) 
15.873927354812622

>  <fragmenstein_outcome>  (68) 
too moved

>  <fragmenstein_mode>  (68) 
expansion

>  <fragmenstein_error>  (68) 


$$$$
C51706-P3
     RDKit          3D

 54 58  0  0  0  0  0  0  0  0999 V2000
  -11.6335  -24.2102   30.4894 O   0  0  0  0  0  0  0  0  0  0  0  0
  -11.1685  -24.9596   31.2985 C   0  0  0  0  0  0  0  0  0  0  0  0
  -10.1445  -24.7509   32.3007 N   0  0  0  0  0  0  0  0  0  0  0  0
   -9.4226  -23.5310   32.7051 C   0  0  0  0  0  0  0  0  0  0  0  0
   -9.7044  -22.4301   31.7488 C   0  0  0  0  0  0  0  0  0  0  0  0
  -10.6277  -21.4145   31.9060 C   0  0  0  0  0  0  0  0  0  0  0  0
  -11.2602  -20.9272   30.7573 C   0  0  0  0  0  0  0  0  0  0  0  0
  -10.9682  -21.5088   29.5255 C   0  0  0  0  0  0  0  0  0  0  0  0
  -11.9245  -21.5553   28.5127 N   0  0  0  0  0  0  0  0  0  0  0  0
  -11.9694  -22.8135   27.7385 C   0  0  0  0  0  0  0  0  0  0  0  0
  -11.8750  -22.4084   26.2752 C   0  0  0  0  0  0  0  0  0  0  0  0
  -12.3771  -20.9809   26.2913 C   0  0  0  0  0  0  0  0  0  0  0  0
  -11.8097  -20.4343   27.5996 C   0  0  0  0  0  0  0  0  0  0  0  0
   -9.8654  -22.2354   29.3694 N   0  0  0  0  0  0  0  0  0  0  0  0
   -9.2725  -22.6909   30.4781 C   0  0  0  0  0  0  0  0  0  0  0  0
  -11.8526  -26.2704   31.2245 C   0  0  0  0  0  0  0  0  0  0  0  0
  -12.1382  -27.0614   32.3317 C   0  0  0  0  0  0  0  0  0  0  0  0
  -12.9414  -28.1959   32.1953 C   0  0  0  0  0  0  0  0  0  0  0  0
  -13.4793  -28.4741   30.9317 C   0  0  0  0  0  0  0  0  0  0  0  0
  -14.3253  -29.4824   30.5279 N   0  0  0  0  0  0  0  0  0  0  0  0
  -14.6864  -29.2914   29.2247 C   0  0  0  0  0  0  0  0  0  0  0  0
  -14.0285  -28.1792   28.7489 C   0  0  0  0  0  0  0  0  0  0  0  0
  -13.2321  -27.6845   29.8117 C   0  0  0  0  0  0  0  0  0  0  0  0
  -12.3749  -26.5940   29.9534 C   0  0  0  0  0  0  0  0  0  0  0  0
  -14.2495  -27.6493   27.3742 C   0  0  0  0  0  0  0  0  0  0  0  0
  -15.5599  -28.2083   26.7841 C   0  0  0  0  0  0  0  0  0  0  0  0
  -15.6919  -29.7280   27.0029 C   0  0  0  0  0  0  0  0  0  0  0  0
  -15.6954  -30.1053   28.4950 C   0  0  0  0  0  0  0  0  0  0  0  0
   -9.9444  -25.6269   32.7549 H   0  0  0  0  0  0  0  0  0  0  0  0
   -9.7045  -23.2588   33.7217 H   0  0  0  0  0  0  0  0  0  0  0  0
   -8.3555  -23.7637   32.6682 H   0  0  0  0  0  0  0  0  0  0  0  0
  -11.0098  -21.1328   32.8824 H   0  0  0  0  0  0  0  0  0  0  0  0
  -12.0922  -20.2465   30.8708 H   0  0  0  0  0  0  0  0  0  0  0  0
  -11.2065  -23.5593   27.9747 H   0  0  0  0  0  0  0  0  0  0  0  0
  -12.9378  -23.2933   27.9210 H   0  0  0  0  0  0  0  0  0  0  0  0
  -10.8361  -22.4627   25.9370 H   0  0  0  0  0  0  0  0  0  0  0  0
  -12.4759  -23.0535   25.6295 H   0  0  0  0  0  0  0  0  0  0  0  0
  -13.4667  -21.0019   26.3177 H   0  0  0  0  0  0  0  0  0  0  0  0
  -12.0880  -20.4069   25.4091 H   0  0  0  0  0  0  0  0  0  0  0  0
  -10.7741  -20.1221   27.4897 H   0  0  0  0  0  0  0  0  0  0  0  0
  -12.3732  -19.5850   27.9769 H   0  0  0  0  0  0  0  0  0  0  0  0
   -8.5402  -23.4751   30.3354 H   0  0  0  0  0  0  0  0  0  0  0  0
  -11.7559  -26.8133   33.3136 H   0  0  0  0  0  0  0  0  0  0  0  0
  -13.1711  -28.8186   33.0545 H   0  0  0  0  0  0  0  0  0  0  0  0
  -14.6800  -30.2107   31.1322 H   0  0  0  0  0  0  0  0  0  0  0  0
  -12.1840  -25.9565   29.0934 H   0  0  0  0  0  0  0  0  0  0  0  0
  -14.2943  -26.5545   27.3853 H   0  0  0  0  0  0  0  0  0  0  0  0
  -13.4072  -27.9352   26.7376 H   0  0  0  0  0  0  0  0  0  0  0  0
  -16.4153  -27.7071   27.2557 H   0  0  0  0  0  0  0  0  0  0  0  0
  -15.6083  -27.9769   25.7160 H   0  0  0  0  0  0  0  0  0  0  0  0
  -16.6094  -30.0964   26.5305 H   0  0  0  0  0  0  0  0  0  0  0  0
  -14.8545  -30.2346   26.5081 H   0  0  0  0  0  0  0  0  0  0  0  0
  -16.6873  -29.9053   28.9176 H   0  0  0  0  0  0  0  0  0  0  0  0
  -15.4941  -31.1758   28.6098 H   0  0  0  0  0  0  0  0  0  0  0  0
  1  2  2  0
  2  3  1  0
  3  4  1  0
  4  5  1  0
  5  6  2  0
  6  7  1  0
  7  8  2  0
  8  9  1  0
  9 10  1  0
 10 11  1  0
 11 12  1  0
 12 13  1  0
  8 14  1  0
 14 15  2  0
  2 16  1  0
 16 17  2  0
 17 18  1  0
 18 19  2  0
 19 20  1  0
 20 21  1  0
 21 22  2  0
 22 23  1  0
 23 24  2  0
 22 25  1  0
 25 26  1  0
 26 27  1  0
 27 28  1  0
 15  5  1  0
 24 16  1  0
 13  9  1  0
 23 19  1  0
 28 21  1  0
  3 29  1  0
  4 30  1  0
  4 31  1  0
  6 32  1  0
  7 33  1  0
 10 34  1  0
 10 35  1  0
 11 36  1  0
 11 37  1  0
 12 38  1  0
 12 39  1  0
 13 40  1  0
 13 41  1  0
 15 42  1  0
 17 43  1  0
 18 44  1  0
 20 45  1  0
 24 46  1  0
 25 47  1  0
 25 48  1  0
 26 49  1  0
 26 50  1  0
 27 51  1  0
 27 52  1  0
 28 53  1  0
 28 54  1  0
M  END
>  <Energy>  (69) 
47.828433517475084

>  <compound_id>  (69) 
51706

>  <target_id>  (69) 
1

>  <reference_id>  (69) 
3

>  <inspiration_ids>  (69) 
[3, 39]

>  <energy_score>  (69) 
4.679886395452598

>  <distance_score>  (69) 
3.4763105695574064

>  <path>  (69) 
/opt/xchem-fragalysis-2/maxwin/BulkDock/SCRATCH/511021/C51706-P3/C51706-P3.minimised.mol

>  <scratch_subdir>  (69) 
/opt/xchem-fragalysis-2/maxwin/BulkDock/SCRATCH/511021/C51706-P3

>  <fragmenstein_runtime>  (69) 
25.11495304107666

>  <fragmenstein_outcome>  (69) 
too moved

>  <fragmenstein_mode>  (69) 
expansion

>  <fragmenstein_error>  (69) 


$$$$
C51706-P39
     RDKit          3D

 54 58  0  0  0  0  0  0  0  0999 V2000
  -13.8610  -22.4817   30.8094 O   0  0  0  0  0  0  0  0  0  0  0  0
  -13.6109  -23.5473   31.2930 C   0  0  0  0  0  0  0  0  0  0  0  0
  -13.6085  -23.9740   32.6431 N   0  0  0  0  0  0  0  0  0  0  0  0
  -13.8019  -23.2534   33.8466 C   0  0  0  0  0  0  0  0  0  0  0  0
  -12.3449  -22.7389   33.8904 C   0  0  0  0  0  0  0  0  0  0  0  0
  -12.1549  -21.4969   33.3277 C   0  0  0  0  0  0  0  0  0  0  0  0
  -11.4434  -21.4703   32.1319 C   0  0  0  0  0  0  0  0  0  0  0  0
  -11.0210  -22.6348   31.5155 C   0  0  0  0  0  0  0  0  0  0  0  0
  -11.1388  -22.7712   30.1275 N   0  0  0  0  0  0  0  0  0  0  0  0
  -11.4443  -21.6433   29.2805 C   0  0  0  0  0  0  0  0  0  0  0  0
  -11.3719  -22.2180   27.8952 C   0  0  0  0  0  0  0  0  0  0  0  0
  -10.2323  -23.2099   27.9843 C   0  0  0  0  0  0  0  0  0  0  0  0
  -10.5715  -23.8624   29.2889 C   0  0  0  0  0  0  0  0  0  0  0  0
  -10.7178  -23.6675   32.3122 N   0  0  0  0  0  0  0  0  0  0  0  0
  -11.3808  -23.7013   33.5027 C   0  0  0  0  0  0  0  0  0  0  0  0
  -13.0992  -24.6725   30.3902 C   0  0  0  0  0  0  0  0  0  0  0  0
  -12.1915  -25.6979   30.8054 C   0  0  0  0  0  0  0  0  0  0  0  0
  -11.6639  -26.6608   29.9356 C   0  0  0  0  0  0  0  0  0  0  0  0
  -12.1154  -26.5562   28.6265 C   0  0  0  0  0  0  0  0  0  0  0  0
  -11.4796  -26.8134   27.4305 N   0  0  0  0  0  0  0  0  0  0  0  0
  -12.2403  -26.1980   26.4851 C   0  0  0  0  0  0  0  0  0  0  0  0
  -13.5230  -26.0986   26.9521 C   0  0  0  0  0  0  0  0  0  0  0  0
  -13.1645  -25.7135   28.2402 C   0  0  0  0  0  0  0  0  0  0  0  0
  -13.5531  -24.6683   29.0816 C   0  0  0  0  0  0  0  0  0  0  0  0
  -14.6715  -25.6902   26.1031 C   0  0  0  0  0  0  0  0  0  0  0  0
  -14.2350  -24.6890   25.0256 C   0  0  0  0  0  0  0  0  0  0  0  0
  -12.7842  -24.2032   25.2482 C   0  0  0  0  0  0  0  0  0  0  0  0
  -11.7875  -25.4114   25.3487 C   0  0  0  0  0  0  0  0  0  0  0  0
  -13.4288  -24.9634   32.6727 H   0  0  0  0  0  0  0  0  0  0  0  0
  -14.0589  -23.9388   34.6476 H   0  0  0  0  0  0  0  0  0  0  0  0
  -14.5323  -22.4496   33.7271 H   0  0  0  0  0  0  0  0  0  0  0  0
  -12.7120  -20.6356   33.6695 H   0  0  0  0  0  0  0  0  0  0  0  0
  -11.3574  -20.5670   31.5911 H   0  0  0  0  0  0  0  0  0  0  0  0
  -12.4186  -21.2088   29.4537 H   0  0  0  0  0  0  0  0  0  0  0  0
  -10.6833  -20.8919   29.4222 H   0  0  0  0  0  0  0  0  0  0  0  0
  -12.3109  -22.7319   27.7230 H   0  0  0  0  0  0  0  0  0  0  0  0
  -11.2691  -21.4709   27.1235 H   0  0  0  0  0  0  0  0  0  0  0  0
   -9.2541  -22.7331   28.0200 H   0  0  0  0  0  0  0  0  0  0  0  0
  -10.2176  -23.9307   27.1689 H   0  0  0  0  0  0  0  0  0  0  0  0
  -11.3134  -24.5023   28.9372 H   0  0  0  0  0  0  0  0  0  0  0  0
   -9.7919  -24.5032   29.7230 H   0  0  0  0  0  0  0  0  0  0  0  0
  -11.3577  -24.6731   33.9932 H   0  0  0  0  0  0  0  0  0  0  0  0
  -11.7415  -25.6663   31.7847 H   0  0  0  0  0  0  0  0  0  0  0  0
  -10.8016  -27.2443   30.2340 H   0  0  0  0  0  0  0  0  0  0  0  0
  -10.4860  -26.9653   27.3585 H   0  0  0  0  0  0  0  0  0  0  0  0
  -14.2399  -23.9089   28.7897 H   0  0  0  0  0  0  0  0  0  0  0  0
  -15.4780  -25.2850   26.7148 H   0  0  0  0  0  0  0  0  0  0  0  0
  -15.0907  -26.5812   25.6194 H   0  0  0  0  0  0  0  0  0  0  0  0
  -14.3394  -25.1742   24.0508 H   0  0  0  0  0  0  0  0  0  0  0  0
  -14.9196  -23.8359   24.9911 H   0  0  0  0  0  0  0  0  0  0  0  0
  -12.4826  -23.4501   24.5111 H   0  0  0  0  0  0  0  0  0  0  0  0
  -12.7709  -23.6558   26.1800 H   0  0  0  0  0  0  0  0  0  0  0  0
  -11.8073  -26.1098   24.5181 H   0  0  0  0  0  0  0  0  0  0  0  0
  -10.7814  -25.0231   25.4647 H   0  0  0  0  0  0  0  0  0  0  0  0
  1  2  2  0
  2  3  1  0
  3  4  1  0
  4  5  1  0
  5  6  2  0
  6  7  1  0
  7  8  2  0
  8  9  1  0
  9 10  1  0
 10 11  1  0
 11 12  1  0
 12 13  1  0
  8 14  1  0
 14 15  2  0
  2 16  1  0
 16 17  2  0
 17 18  1  0
 18 19  2  0
 19 20  1  0
 20 21  1  0
 21 22  2  0
 22 23  1  0
 23 24  2  0
 22 25  1  0
 25 26  1  0
 26 27  1  0
 27 28  1  0
 15  5  1  0
 24 16  1  0
 13  9  1  0
 23 19  1  0
 28 21  1  0
  3 29  1  0
  4 30  1  0
  4 31  1  0
  6 32  1  0
  7 33  1  0
 10 34  1  0
 10 35  1  0
 11 36  1  0
 11 37  1  0
 12 38  1  0
 12 39  1  0
 13 40  1  0
 13 41  1  0
 15 42  1  0
 17 43  1  0
 18 44  1  0
 20 45  1  0
 24 46  1  0
 25 47  1  0
 25 48  1  0
 26 49  1  0
 26 50  1  0
 27 51  1  0
 27 52  1  0
 28 53  1  0
 28 54  1  0
M  END
>  <Energy>  (70) 
190.06681186504207

>  <compound_id>  (70) 
51706

>  <target_id>  (70) 
1

>  <reference_id>  (70) 
39

>  <inspiration_ids>  (70) 
[3, 39]

>  <energy_score>  (70) 
146.91826474302036

>  <distance_score>  (70) 
3.264704262295809

>  <path>  (70) 
/opt/xchem-fragalysis-2/maxwin/BulkDock/SCRATCH/511021/C51706-P39/C51706-P39.minimised.mol

>  <scratch_subdir>  (70) 
/opt/xchem-fragalysis-2/maxwin/BulkDock/SCRATCH/511021/C51706-P39

>  <fragmenstein_runtime>  (70) 
30.300705671310425

>  <fragmenstein_outcome>  (70) 
too moved

>  <fragmenstein_mode>  (70) 
expansion

>  <fragmenstein_error>  (70) 


$$$$
C51704-P3
     RDKit          3D

 47 50  0  0  0  0  0  0  0  0999 V2000
  -12.6418  -25.5795   27.4345 O   0  0  0  0  0  0  0  0  0  0  0  0
  -12.5189  -24.4385   27.6841 C   0  0  0  0  0  0  0  0  0  0  0  0
  -11.8056  -24.0671   28.9389 C   0  0  0  0  0  0  0  0  0  0  0  0
  -11.5680  -25.0906   29.8537 C   0  0  0  0  0  0  0  0  0  0  0  0
  -10.7803  -24.8882   30.9716 C   0  0  0  0  0  0  0  0  0  0  0  0
  -10.1816  -23.6586   31.1205 C   0  0  0  0  0  0  0  0  0  0  0  0
   -9.2670  -23.2478   32.0489 N   0  0  0  0  0  0  0  0  0  0  0  0
   -9.4467  -21.9100   32.1656 C   0  0  0  0  0  0  0  0  0  0  0  0
  -10.2024  -21.4305   31.1182 C   0  0  0  0  0  0  0  0  0  0  0  0
  -10.5688  -22.5613   30.3564 C   0  0  0  0  0  0  0  0  0  0  0  0
  -11.3753  -22.7654   29.2273 C   0  0  0  0  0  0  0  0  0  0  0  0
  -10.7389  -20.0283   31.0494 C   0  0  0  0  0  0  0  0  0  0  0  0
  -11.8554  -19.8622   32.0208 C   0  0  0  0  0  0  0  0  0  0  0  0
  -11.5232  -19.9996   33.5036 C   0  0  0  0  0  0  0  0  0  0  0  0
  -10.6506  -21.1442   34.0081 C   0  0  0  0  0  0  0  0  0  0  0  0
   -9.2444  -21.2552   33.4439 C   0  0  0  0  0  0  0  0  0  0  0  0
  -12.9385  -23.2284   26.9128 N   0  0  0  0  0  0  0  0  0  0  0  0
  -13.7172  -23.1049   25.6626 C   0  0  0  0  0  0  0  0  0  0  0  0
  -13.6112  -21.7816   24.9908 C   0  0  0  0  0  0  0  0  0  0  0  0
  -12.1613  -21.5496   25.1267 C   0  0  0  0  0  0  0  0  0  0  0  0
  -11.4067  -21.5513   23.7928 C   0  0  0  0  0  0  0  0  0  0  0  0
  -11.0412  -20.2334   23.4160 O   0  0  0  0  0  0  0  0  0  0  0  0
  -11.8410  -22.7696   25.9680 C   0  0  0  0  0  0  0  0  0  0  0  0
  -11.9884  -26.0820   29.6883 H   0  0  0  0  0  0  0  0  0  0  0  0
  -10.6767  -25.6423   31.7304 H   0  0  0  0  0  0  0  0  0  0  0  0
   -8.8242  -23.8466   32.7426 H   0  0  0  0  0  0  0  0  0  0  0  0
  -11.6648  -21.9091   28.6307 H   0  0  0  0  0  0  0  0  0  0  0  0
  -10.0184  -19.2622   31.3330 H   0  0  0  0  0  0  0  0  0  0  0  0
  -11.0766  -19.8020   30.0309 H   0  0  0  0  0  0  0  0  0  0  0  0
  -12.2954  -18.8742   31.9054 H   0  0  0  0  0  0  0  0  0  0  0  0
  -12.5868  -20.5566   31.6677 H   0  0  0  0  0  0  0  0  0  0  0  0
  -12.4569  -20.0076   34.0764 H   0  0  0  0  0  0  0  0  0  0  0  0
  -11.0783  -19.0549   33.8039 H   0  0  0  0  0  0  0  0  0  0  0  0
  -10.6071  -21.0941   35.0948 H   0  0  0  0  0  0  0  0  0  0  0  0
  -11.1470  -22.0698   33.7938 H   0  0  0  0  0  0  0  0  0  0  0  0
   -8.6174  -21.8594   34.1078 H   0  0  0  0  0  0  0  0  0  0  0  0
   -8.7543  -20.2949   33.2968 H   0  0  0  0  0  0  0  0  0  0  0  0
  -13.5643  -23.9723   25.0077 H   0  0  0  0  0  0  0  0  0  0  0  0
  -14.7606  -23.2408   25.9815 H   0  0  0  0  0  0  0  0  0  0  0  0
  -13.9713  -21.8116   23.9741 H   0  0  0  0  0  0  0  0  0  0  0  0
  -14.1791  -21.0375   25.5344 H   0  0  0  0  0  0  0  0  0  0  0  0
  -12.0079  -20.6212   25.6870 H   0  0  0  0  0  0  0  0  0  0  0  0
  -10.4698  -22.1074   23.8827 H   0  0  0  0  0  0  0  0  0  0  0  0
  -11.9837  -21.9905   22.9754 H   0  0  0  0  0  0  0  0  0  0  0  0
  -11.8306  -19.6718   23.3522 H   0  0  0  0  0  0  0  0  0  0  0  0
  -11.4007  -23.6216   25.4466 H   0  0  0  0  0  0  0  0  0  0  0  0
  -10.9959  -22.4822   26.6077 H   0  0  0  0  0  0  0  0  0  0  0  0
  1  2  2  0
  2  3  1  0
  3  4  2  0
  4  5  1  0
  5  6  2  0
  6  7  1  0
  7  8  1  0
  8  9  2  0
  9 10  1  0
 10 11  2  0
  9 12  1  0
 12 13  1  0
 13 14  1  0
 14 15  1  0
 15 16  1  0
  2 17  1  0
 17 18  1  0
 18 19  1  0
 19 20  1  0
 20 21  1  0
 21 22  1  0
 20 23  1  0
 11  3  1  0
 23 17  1  0
 10  6  1  0
 16  8  1  0
  4 24  1  0
  5 25  1  0
  7 26  1  0
 11 27  1  0
 12 28  1  0
 12 29  1  0
 13 30  1  0
 13 31  1  0
 14 32  1  0
 14 33  1  0
 15 34  1  0
 15 35  1  0
 16 36  1  0
 16 37  1  0
 18 38  1  0
 18 39  1  0
 19 40  1  0
 19 41  1  0
 20 42  1  0
 21 43  1  0
 21 44  1  0
 22 45  1  0
 23 46  1  0
 23 47  1  0
M  END
>  <Energy>  (71) 
129.49715706651253

>  <compound_id>  (71) 
51704

>  <target_id>  (71) 
1

>  <reference_id>  (71) 
3

>  <inspiration_ids>  (71) 
[3, 39]

>  <energy_score>  (71) 
-39.8055238647529

>  <distance_score>  (71) 
3.0730484678403363

>  <path>  (71) 
/opt/xchem-fragalysis-2/maxwin/BulkDock/SCRATCH/511021/C51704-P3/C51704-P3.minimised.mol

>  <scratch_subdir>  (71) 
/opt/xchem-fragalysis-2/maxwin/BulkDock/SCRATCH/511021/C51704-P3

>  <fragmenstein_runtime>  (71) 
12.969072818756104

>  <fragmenstein_outcome>  (71) 
too moved

>  <fragmenstein_mode>  (71) 
expansion

>  <fragmenstein_error>  (71) 


$$$$
C51704-P39
     RDKit          3D

 47 50  0  0  0  0  0  0  0  0999 V2000
   -9.9454  -24.7881   32.0961 O   0  0  0  0  0  0  0  0  0  0  0  0
  -11.0468  -24.6035   31.6507 C   0  0  0  0  0  0  0  0  0  0  0  0
  -11.8390  -23.5129   32.2705 C   0  0  0  0  0  0  0  0  0  0  0  0
  -11.3183  -22.2342   32.2051 C   0  0  0  0  0  0  0  0  0  0  0  0
  -11.9117  -21.1763   32.8644 C   0  0  0  0  0  0  0  0  0  0  0  0
  -13.1375  -21.4011   33.4551 C   0  0  0  0  0  0  0  0  0  0  0  0
  -13.9517  -20.5230   34.1138 N   0  0  0  0  0  0  0  0  0  0  0  0
  -15.1954  -21.0702   34.2127 C   0  0  0  0  0  0  0  0  0  0  0  0
  -15.0636  -22.4336   33.9998 C   0  0  0  0  0  0  0  0  0  0  0  0
  -13.7600  -22.6391   33.4548 C   0  0  0  0  0  0  0  0  0  0  0  0
  -13.0435  -23.7313   32.9287 C   0  0  0  0  0  0  0  0  0  0  0  0
  -16.1253  -23.4658   34.1797 C   0  0  0  0  0  0  0  0  0  0  0  0
  -17.3283  -23.0160   34.9940 C   0  0  0  0  0  0  0  0  0  0  0  0
  -18.2393  -22.0283   34.2640 C   0  0  0  0  0  0  0  0  0  0  0  0
  -17.5816  -20.7708   33.6870 C   0  0  0  0  0  0  0  0  0  0  0  0
  -16.3978  -20.2537   34.5042 C   0  0  0  0  0  0  0  0  0  0  0  0
  -11.7080  -25.2006   30.5458 N   0  0  0  0  0  0  0  0  0  0  0  0
  -11.2934  -26.3255   29.6493 C   0  0  0  0  0  0  0  0  0  0  0  0
  -12.0170  -26.3672   28.3117 C   0  0  0  0  0  0  0  0  0  0  0  0
  -12.3017  -24.9162   28.1517 C   0  0  0  0  0  0  0  0  0  0  0  0
  -11.9246  -24.3150   26.8155 C   0  0  0  0  0  0  0  0  0  0  0  0
  -11.9063  -22.9105   26.9857 O   0  0  0  0  0  0  0  0  0  0  0  0
  -11.4554  -24.4052   29.2953 C   0  0  0  0  0  0  0  0  0  0  0  0
  -10.3933  -22.0415   31.7048 H   0  0  0  0  0  0  0  0  0  0  0  0
  -11.4229  -20.2126   32.9165 H   0  0  0  0  0  0  0  0  0  0  0  0
  -13.7039  -19.5678   34.3300 H   0  0  0  0  0  0  0  0  0  0  0  0
  -13.4250  -24.7279   33.0067 H   0  0  0  0  0  0  0  0  0  0  0  0
  -16.4802  -23.8054   33.2064 H   0  0  0  0  0  0  0  0  0  0  0  0
  -15.6793  -24.3207   34.7000 H   0  0  0  0  0  0  0  0  0  0  0  0
  -17.9291  -23.9001   35.2432 H   0  0  0  0  0  0  0  0  0  0  0  0
  -17.0094  -22.5922   35.9539 H   0  0  0  0  0  0  0  0  0  0  0  0
  -18.7675  -22.5471   33.4540 H   0  0  0  0  0  0  0  0  0  0  0  0
  -19.0174  -21.7150   34.9725 H   0  0  0  0  0  0  0  0  0  0  0  0
  -17.2754  -20.9632   32.6497 H   0  0  0  0  0  0  0  0  0  0  0  0
  -18.3468  -19.9862   33.6319 H   0  0  0  0  0  0  0  0  0  0  0  0
  -16.2081  -19.2121   34.2162 H   0  0  0  0  0  0  0  0  0  0  0  0
  -16.6250  -20.2513   35.5754 H   0  0  0  0  0  0  0  0  0  0  0  0
  -10.1951  -26.3580   29.5510 H   0  0  0  0  0  0  0  0  0  0  0  0
  -11.5338  -27.2355   30.2135 H   0  0  0  0  0  0  0  0  0  0  0  0
  -11.3761  -26.7913   27.5328 H   0  0  0  0  0  0  0  0  0  0  0  0
  -12.9334  -26.9607   28.3517 H   0  0  0  0  0  0  0  0  0  0  0  0
  -13.3552  -24.7005   28.3686 H   0  0  0  0  0  0  0  0  0  0  0  0
  -10.9310  -24.6315   26.4854 H   0  0  0  0  0  0  0  0  0  0  0  0
  -12.6527  -24.5892   26.0452 H   0  0  0  0  0  0  0  0  0  0  0  0
  -12.3258  -22.4842   26.2063 H   0  0  0  0  0  0  0  0  0  0  0  0
  -10.3795  -24.3290   29.0588 H   0  0  0  0  0  0  0  0  0  0  0  0
  -11.7589  -23.3719   29.5139 H   0  0  0  0  0  0  0  0  0  0  0  0
  1  2  2  0
  2  3  1  0
  3  4  2  0
  4  5  1  0
  5  6  2  0
  6  7  1  0
  7  8  1  0
  8  9  2  0
  9 10  1  0
 10 11  2  0
  9 12  1  0
 12 13  1  0
 13 14  1  0
 14 15  1  0
 15 16  1  0
  2 17  1  0
 17 18  1  0
 18 19  1  0
 19 20  1  0
 20 21  1  0
 21 22  1  0
 20 23  1  0
 11  3  1  0
 23 17  1  0
 10  6  1  0
 16  8  1  0
  4 24  1  0
  5 25  1  0
  7 26  1  0
 11 27  1  0
 12 28  1  0
 12 29  1  0
 13 30  1  0
 13 31  1  0
 14 32  1  0
 14 33  1  0
 15 34  1  0
 15 35  1  0
 16 36  1  0
 16 37  1  0
 18 38  1  0
 18 39  1  0
 19 40  1  0
 19 41  1  0
 20 42  1  0
 21 43  1  0
 21 44  1  0
 22 45  1  0
 23 46  1  0
 23 47  1  0
M  END
>  <Energy>  (72) 
99.026329841817301

>  <compound_id>  (72) 
51704

>  <target_id>  (72) 
1

>  <reference_id>  (72) 
39

>  <inspiration_ids>  (72) 
[3, 39]

>  <energy_score>  (72) 
31.270833530509492

>  <distance_score>  (72) 
5.082558866604317

>  <path>  (72) 
/opt/xchem-fragalysis-2/maxwin/BulkDock/SCRATCH/511021/C51704-P39/C51704-P39.minimised.mol

>  <scratch_subdir>  (72) 
/opt/xchem-fragalysis-2/maxwin/BulkDock/SCRATCH/511021/C51704-P39

>  <fragmenstein_runtime>  (72) 
19.337909698486328

>  <fragmenstein_outcome>  (72) 
too moved

>  <fragmenstein_mode>  (72) 
expansion

>  <fragmenstein_error>  (72) 


$$$$
C51697-P3
     RDKit          3D

 42 45  0  0  0  0  0  0  0  0999 V2000
  -16.0999  -27.5653   25.7937 N   0  0  0  0  0  0  0  0  0  0  0  0
  -16.2290  -26.6311   26.8985 C   0  0  0  0  0  0  0  0  0  0  0  0
  -16.1422  -25.2086   26.4760 C   0  0  0  0  0  0  0  0  0  0  0  0
  -15.3841  -24.7178   27.6823 C   0  0  0  0  0  0  0  0  0  0  0  0
  -14.1258  -25.5181   27.9370 N   0  0  0  0  0  0  0  0  0  0  0  0
  -13.1212  -25.1754   26.9851 C   0  0  0  0  0  0  0  0  0  0  0  0
  -12.8667  -25.6507   25.9140 O   0  0  0  0  0  0  0  0  0  0  0  0
  -12.3365  -24.0192   27.4945 C   0  0  0  0  0  0  0  0  0  0  0  0
  -12.4202  -22.7703   26.8737 C   0  0  0  0  0  0  0  0  0  0  0  0
  -11.9818  -21.6136   27.5352 C   0  0  0  0  0  0  0  0  0  0  0  0
  -11.4695  -21.7722   28.8273 C   0  0  0  0  0  0  0  0  0  0  0  0
  -11.1776  -20.8419   29.8056 N   0  0  0  0  0  0  0  0  0  0  0  0
  -10.6921  -21.4984   30.9032 C   0  0  0  0  0  0  0  0  0  0  0  0
  -10.5414  -22.8233   30.5818 C   0  0  0  0  0  0  0  0  0  0  0  0
  -11.2345  -23.0308   29.3801 C   0  0  0  0  0  0  0  0  0  0  0  0
  -11.6855  -24.1767   28.7175 C   0  0  0  0  0  0  0  0  0  0  0  0
   -9.8038  -23.7948   31.4077 C   0  0  0  0  0  0  0  0  0  0  0  0
   -9.2089  -23.1769   32.6674 C   0  0  0  0  0  0  0  0  0  0  0  0
   -9.1043  -21.6520   32.7446 C   0  0  0  0  0  0  0  0  0  0  0  0
  -10.3183  -20.8935   32.2029 C   0  0  0  0  0  0  0  0  0  0  0  0
  -15.1171  -26.6539   27.9566 C   0  0  0  0  0  0  0  0  0  0  0  0
  -16.8799  -27.4595   25.1464 H   0  0  0  0  0  0  0  0  0  0  0  0
  -16.1310  -28.5247   26.1368 H   0  0  0  0  0  0  0  0  0  0  0  0
  -17.1859  -26.8326   27.3961 H   0  0  0  0  0  0  0  0  0  0  0  0
  -15.5654  -25.0658   25.5559 H   0  0  0  0  0  0  0  0  0  0  0  0
  -17.1179  -24.7293   26.3565 H   0  0  0  0  0  0  0  0  0  0  0  0
  -15.0872  -23.6797   27.4867 H   0  0  0  0  0  0  0  0  0  0  0  0
  -15.9949  -24.6530   28.5999 H   0  0  0  0  0  0  0  0  0  0  0  0
  -12.9060  -22.6790   25.9044 H   0  0  0  0  0  0  0  0  0  0  0  0
  -12.1164  -20.6312   27.0927 H   0  0  0  0  0  0  0  0  0  0  0  0
  -11.3452  -19.8437   29.7370 H   0  0  0  0  0  0  0  0  0  0  0  0
  -11.5960  -25.1567   29.1757 H   0  0  0  0  0  0  0  0  0  0  0  0
  -10.4340  -24.6530   31.6628 H   0  0  0  0  0  0  0  0  0  0  0  0
   -8.9800  -24.1889   30.8028 H   0  0  0  0  0  0  0  0  0  0  0  0
   -8.1950  -23.5743   32.7573 H   0  0  0  0  0  0  0  0  0  0  0  0
   -9.7719  -23.5249   33.5346 H   0  0  0  0  0  0  0  0  0  0  0  0
   -8.2136  -21.3621   32.1869 H   0  0  0  0  0  0  0  0  0  0  0  0
   -8.9158  -21.3599   33.7809 H   0  0  0  0  0  0  0  0  0  0  0  0
  -10.1005  -19.8263   32.1064 H   0  0  0  0  0  0  0  0  0  0  0  0
  -11.1507  -20.9876   32.9066 H   0  0  0  0  0  0  0  0  0  0  0  0
  -15.5300  -26.7387   28.9751 H   0  0  0  0  0  0  0  0  0  0  0  0
  -14.5107  -27.5610   27.8266 H   0  0  0  0  0  0  0  0  0  0  0  0
  1  2  1  0
  2  3  1  0
  3  4  1  0
  4  5  1  0
  5  6  1  0
  6  7  2  0
  6  8  1  0
  8  9  2  0
  9 10  1  0
 10 11  2  0
 11 12  1  0
 12 13  1  0
 13 14  2  0
 14 15  1  0
 15 16  2  0
 14 17  1  0
 17 18  1  0
 18 19  1  0
 19 20  1  0
  5 21  1  0
 21  2  1  0
 16  8  1  0
 15 11  1  0
 20 13  1  0
  1 22  1  0
  1 23  1  0
  2 24  1  0
  3 25  1  0
  3 26  1  0
  4 27  1  0
  4 28  1  0
  9 29  1  0
 10 30  1  0
 12 31  1  0
 16 32  1  0
 17 33  1  0
 17 34  1  0
 18 35  1  0
 18 36  1  0
 19 37  1  0
 19 38  1  0
 20 39  1  0
 20 40  1  0
 21 41  1  0
 21 42  1  0
M  END
>  <Energy>  (73) 
120.94164104636617

>  <compound_id>  (73) 
51697

>  <target_id>  (73) 
1

>  <reference_id>  (73) 
3

>  <inspiration_ids>  (73) 
[3, 39]

>  <energy_score>  (73) 
37.29283283059246

>  <distance_score>  (73) 
4.31373377531336

>  <path>  (73) 
/opt/xchem-fragalysis-2/maxwin/BulkDock/SCRATCH/511021/C51697-P3/C51697-P3.minimised.mol

>  <scratch_subdir>  (73) 
/opt/xchem-fragalysis-2/maxwin/BulkDock/SCRATCH/511021/C51697-P3

>  <fragmenstein_runtime>  (73) 
14.60719895362854

>  <fragmenstein_outcome>  (73) 
too moved

>  <fragmenstein_mode>  (73) 
expansion

>  <fragmenstein_error>  (73) 


$$$$
C51697-P39
     RDKit          3D

 42 45  0  0  0  0  0  0  0  0999 V2000
  -10.9015  -27.0120   26.1724 N   0  0  0  0  0  0  0  0  0  0  0  0
  -11.7991  -26.1666   25.4142 C   0  0  0  0  0  0  0  0  0  0  0  0
  -11.2590  -24.7754   25.4338 C   0  0  0  0  0  0  0  0  0  0  0  0
  -12.5368  -24.1080   25.8134 C   0  0  0  0  0  0  0  0  0  0  0  0
  -13.1292  -24.8332   26.9930 N   0  0  0  0  0  0  0  0  0  0  0  0
  -12.3111  -24.6792   28.1227 C   0  0  0  0  0  0  0  0  0  0  0  0
  -11.4026  -25.3517   28.5293 O   0  0  0  0  0  0  0  0  0  0  0  0
  -12.5538  -23.4554   28.8499 C   0  0  0  0  0  0  0  0  0  0  0  0
  -11.7742  -22.3652   28.5077 C   0  0  0  0  0  0  0  0  0  0  0  0
  -11.4084  -21.4681   29.4718 C   0  0  0  0  0  0  0  0  0  0  0  0
  -11.7121  -21.8096   30.7650 C   0  0  0  0  0  0  0  0  0  0  0  0
  -10.9850  -21.5653   31.9028 N   0  0  0  0  0  0  0  0  0  0  0  0
  -11.0245  -22.8039   32.4827 C   0  0  0  0  0  0  0  0  0  0  0  0
  -12.3634  -23.1163   32.4628 C   0  0  0  0  0  0  0  0  0  0  0  0
  -12.6100  -22.8039   31.1130 C   0  0  0  0  0  0  0  0  0  0  0  0
  -13.0944  -23.6220   30.1035 C   0  0  0  0  0  0  0  0  0  0  0  0
  -12.8607  -24.2740   33.2158 C   0  0  0  0  0  0  0  0  0  0  0  0
  -11.7332  -24.7810   34.0940 C   0  0  0  0  0  0  0  0  0  0  0  0
  -10.4582  -25.0686   33.3155 C   0  0  0  0  0  0  0  0  0  0  0  0
   -9.9316  -23.8091   32.6544 C   0  0  0  0  0  0  0  0  0  0  0  0
  -13.2082  -25.9222   26.0048 C   0  0  0  0  0  0  0  0  0  0  0  0
  -10.2198  -27.4578   25.5674 H   0  0  0  0  0  0  0  0  0  0  0  0
  -11.4609  -27.7581   26.5833 H   0  0  0  0  0  0  0  0  0  0  0  0
  -11.9303  -26.6068   24.4324 H   0  0  0  0  0  0  0  0  0  0  0  0
  -10.8187  -24.4016   24.5162 H   0  0  0  0  0  0  0  0  0  0  0  0
  -10.5130  -24.6010   26.2173 H   0  0  0  0  0  0  0  0  0  0  0  0
  -12.2856  -23.0948   26.1023 H   0  0  0  0  0  0  0  0  0  0  0  0
  -13.2715  -23.9398   25.0077 H   0  0  0  0  0  0  0  0  0  0  0  0
  -11.2708  -22.2938   27.5559 H   0  0  0  0  0  0  0  0  0  0  0  0
  -10.6139  -20.7947   29.2582 H   0  0  0  0  0  0  0  0  0  0  0  0
  -10.1808  -20.9600   31.9035 H   0  0  0  0  0  0  0  0  0  0  0  0
  -13.4508  -24.5984   30.3646 H   0  0  0  0  0  0  0  0  0  0  0  0
  -13.0896  -25.0435   32.4954 H   0  0  0  0  0  0  0  0  0  0  0  0
  -13.7471  -24.0171   33.8014 H   0  0  0  0  0  0  0  0  0  0  0  0
  -11.9912  -25.6487   34.6786 H   0  0  0  0  0  0  0  0  0  0  0  0
  -11.5797  -23.9873   34.8091 H   0  0  0  0  0  0  0  0  0  0  0  0
  -10.6433  -25.8327   32.5512 H   0  0  0  0  0  0  0  0  0  0  0  0
   -9.6856  -25.4666   33.9722 H   0  0  0  0  0  0  0  0  0  0  0  0
   -9.0755  -23.4013   33.1858 H   0  0  0  0  0  0  0  0  0  0  0  0
   -9.5703  -24.1507   31.6829 H   0  0  0  0  0  0  0  0  0  0  0  0
  -13.5330  -26.7957   26.5814 H   0  0  0  0  0  0  0  0  0  0  0  0
  -14.0034  -25.7731   25.2557 H   0  0  0  0  0  0  0  0  0  0  0  0
  1  2  1  0
  2  3  1  0
  3  4  1  0
  4  5  1  0
  5  6  1  0
  6  7  2  0
  6  8  1  0
  8  9  2  0
  9 10  1  0
 10 11  2  0
 11 12  1  0
 12 13  1  0
 13 14  2  0
 14 15  1  0
 15 16  2  0
 14 17  1  0
 17 18  1  0
 18 19  1  0
 19 20  1  0
  5 21  1  0
 21  2  1  0
 16  8  1  0
 15 11  1  0
 20 13  1  0
  1 22  1  0
  1 23  1  0
  2 24  1  0
  3 25  1  0
  3 26  1  0
  4 27  1  0
  4 28  1  0
  9 29  1  0
 10 30  1  0
 12 31  1  0
 16 32  1  0
 17 33  1  0
 17 34  1  0
 18 35  1  0
 18 36  1  0
 19 37  1  0
 19 38  1  0
 20 39  1  0
 20 40  1  0
 21 41  1  0
 21 42  1  0
M  END
>  <Energy>  (74) 
196.47121994493671

>  <compound_id>  (74) 
51697

>  <target_id>  (74) 
1

>  <reference_id>  (74) 
39

>  <inspiration_ids>  (74) 
[3, 39]

>  <energy_score>  (74) 
112.82241172915928

>  <distance_score>  (74) 
3.1729613761601945

>  <path>  (74) 
/opt/xchem-fragalysis-2/maxwin/BulkDock/SCRATCH/511021/C51697-P39/C51697-P39.minimised.mol

>  <scratch_subdir>  (74) 
/opt/xchem-fragalysis-2/maxwin/BulkDock/SCRATCH/511021/C51697-P39

>  <fragmenstein_runtime>  (74) 
13.981221675872803

>  <fragmenstein_outcome>  (74) 
too moved

>  <fragmenstein_mode>  (74) 
expansion

>  <fragmenstein_error>  (74) 


$$$$
C51703-P3
     RDKit          3D

 45 49  0  0  0  0  0  0  0  0999 V2000
  -12.8985  -23.2024   26.2955 O   0  0  0  0  0  0  0  0  0  0  0  0
  -12.8861  -24.0982   27.0930 C   0  0  0  0  0  0  0  0  0  0  0  0
  -11.9571  -23.9826   28.2678 C   0  0  0  0  0  0  0  0  0  0  0  0
  -11.6269  -25.1052   29.0285 C   0  0  0  0  0  0  0  0  0  0  0  0
  -10.9569  -24.9885   30.2439 C   0  0  0  0  0  0  0  0  0  0  0  0
  -10.5384  -23.7274   30.6462 C   0  0  0  0  0  0  0  0  0  0  0  0
   -9.8200  -23.3360   31.7590 N   0  0  0  0  0  0  0  0  0  0  0  0
  -10.0362  -22.0029   31.9377 C   0  0  0  0  0  0  0  0  0  0  0  0
  -10.6623  -21.5030   30.8162 C   0  0  0  0  0  0  0  0  0  0  0  0
  -10.8900  -22.5826   29.9309 C   0  0  0  0  0  0  0  0  0  0  0  0
  -11.5633  -22.7083   28.6981 C   0  0  0  0  0  0  0  0  0  0  0  0
  -11.2423  -20.1334   30.7686 C   0  0  0  0  0  0  0  0  0  0  0  0
  -10.9757  -19.3191   32.0340 C   0  0  0  0  0  0  0  0  0  0  0  0
  -10.9366  -20.2007   33.2869 C   0  0  0  0  0  0  0  0  0  0  0  0
   -9.8255  -21.2583   33.2005 C   0  0  0  0  0  0  0  0  0  0  0  0
  -13.6954  -25.2702   27.1839 N   0  0  0  0  0  0  0  0  0  0  0  0
  -14.7338  -25.8097   26.2589 C   0  0  0  0  0  0  0  0  0  0  0  0
  -15.9976  -25.0165   26.1033 C   0  0  0  0  0  0  0  0  0  0  0  0
  -16.3558  -25.1175   27.5261 C   0  0  0  0  0  0  0  0  0  0  0  0
  -14.9493  -24.9862   28.0728 C   0  0  0  0  0  0  0  0  0  0  0  0
  -14.7475  -25.6846   29.3889 C   0  0  0  0  0  0  0  0  0  0  0  0
  -14.7502  -25.1539   30.5944 N   0  0  0  0  0  0  0  0  0  0  0  0
  -14.3344  -26.1377   31.4561 N   0  0  0  0  0  0  0  0  0  0  0  0
  -14.0893  -27.2630   30.8029 N   0  0  0  0  0  0  0  0  0  0  0  0
  -14.3861  -26.9953   29.5237 N   0  0  0  0  0  0  0  0  0  0  0  0
  -11.9046  -26.1006   28.6993 H   0  0  0  0  0  0  0  0  0  0  0  0
  -10.8083  -25.8545   30.8644 H   0  0  0  0  0  0  0  0  0  0  0  0
   -9.4044  -23.9610   32.4428 H   0  0  0  0  0  0  0  0  0  0  0  0
  -11.8653  -21.8204   28.1485 H   0  0  0  0  0  0  0  0  0  0  0  0
  -12.3095  -20.2908   30.7347 H   0  0  0  0  0  0  0  0  0  0  0  0
  -10.9515  -19.5860   29.8672 H   0  0  0  0  0  0  0  0  0  0  0  0
  -11.7525  -18.5614   32.1612 H   0  0  0  0  0  0  0  0  0  0  0  0
  -10.0357  -18.7795   31.9124 H   0  0  0  0  0  0  0  0  0  0  0  0
  -11.8972  -20.6887   33.3915 H   0  0  0  0  0  0  0  0  0  0  0  0
  -10.8707  -19.5990   34.1867 H   0  0  0  0  0  0  0  0  0  0  0  0
   -8.8397  -20.7834   33.1830 H   0  0  0  0  0  0  0  0  0  0  0  0
   -9.8686  -21.9226   34.0684 H   0  0  0  0  0  0  0  0  0  0  0  0
  -14.9103  -26.8679   26.5132 H   0  0  0  0  0  0  0  0  0  0  0  0
  -14.2399  -25.8337   25.2786 H   0  0  0  0  0  0  0  0  0  0  0  0
  -16.7266  -25.4814   25.4356 H   0  0  0  0  0  0  0  0  0  0  0  0
  -15.8066  -23.9857   25.7875 H   0  0  0  0  0  0  0  0  0  0  0  0
  -17.0301  -24.3255   27.8663 H   0  0  0  0  0  0  0  0  0  0  0  0
  -16.8164  -26.0832   27.7705 H   0  0  0  0  0  0  0  0  0  0  0  0
  -14.8639  -23.9191   28.3231 H   0  0  0  0  0  0  0  0  0  0  0  0
  -14.2537  -27.7104   28.8203 H   0  0  0  0  0  0  0  0  0  0  0  0
  1  2  2  0
  2  3  1  0
  3  4  2  0
  4  5  1  0
  5  6  2  0
  6  7  1  0
  7  8  1  0
  8  9  2  0
  9 10  1  0
 10 11  2  0
  9 12  1  0
 12 13  1  0
 13 14  1  0
 14 15  1  0
  2 16  1  0
 16 17  1  0
 17 18  1  0
 18 19  1  0
 19 20  1  0
 20 21  1  0
 21 22  2  0
 22 23  1  0
 23 24  2  0
 24 25  1  0
 11  3  1  0
 20 16  1  0
 25 21  1  0
 10  6  1  0
 15  8  1  0
  4 26  1  0
  5 27  1  0
  7 28  1  0
 11 29  1  0
 12 30  1  0
 12 31  1  0
 13 32  1  0
 13 33  1  0
 14 34  1  0
 14 35  1  0
 15 36  1  0
 15 37  1  0
 17 38  1  0
 17 39  1  0
 18 40  1  0
 18 41  1  0
 19 42  1  0
 19 43  1  0
 20 44  1  0
 25 45  1  0
M  END
>  <Energy>  (75) 
94.159654715377457

>  <compound_id>  (75) 
51703

>  <target_id>  (75) 
1

>  <reference_id>  (75) 
3

>  <inspiration_ids>  (75) 
[3, 39]

>  <energy_score>  (75) 
24.037738883553317

>  <distance_score>  (75) 
3.6398726562660935

>  <path>  (75) 
/opt/xchem-fragalysis-2/maxwin/BulkDock/SCRATCH/511021/C51703-P3/C51703-P3.minimised.mol

>  <scratch_subdir>  (75) 
/opt/xchem-fragalysis-2/maxwin/BulkDock/SCRATCH/511021/C51703-P3

>  <fragmenstein_runtime>  (75) 
56.97297763824463

>  <fragmenstein_outcome>  (75) 
too moved

>  <fragmenstein_mode>  (75) 
expansion

>  <fragmenstein_error>  (75) 


$$$$
C51703-P39
     RDKit          3D

 45 49  0  0  0  0  0  0  0  0999 V2000
  -13.9899  -23.5882   29.3389 O   0  0  0  0  0  0  0  0  0  0  0  0
  -12.9521  -23.4167   29.9109 C   0  0  0  0  0  0  0  0  0  0  0  0
  -13.0266  -22.6413   31.2193 C   0  0  0  0  0  0  0  0  0  0  0  0
  -11.9042  -22.0039   31.7401 C   0  0  0  0  0  0  0  0  0  0  0  0
  -11.9956  -21.1726   32.8569 C   0  0  0  0  0  0  0  0  0  0  0  0
  -13.2274  -20.9906   33.4803 C   0  0  0  0  0  0  0  0  0  0  0  0
  -13.5932  -20.0920   34.4612 N   0  0  0  0  0  0  0  0  0  0  0  0
  -14.9597  -20.0282   34.5180 C   0  0  0  0  0  0  0  0  0  0  0  0
  -15.4731  -20.9994   33.6822 C   0  0  0  0  0  0  0  0  0  0  0  0
  -14.3853  -21.5473   32.9602 C   0  0  0  0  0  0  0  0  0  0  0  0
  -14.2675  -22.3534   31.8146 C   0  0  0  0  0  0  0  0  0  0  0  0
  -16.9309  -21.2907   33.5737 C   0  0  0  0  0  0  0  0  0  0  0  0
  -17.7773  -20.1640   34.1946 C   0  0  0  0  0  0  0  0  0  0  0  0
  -17.1853  -19.6219   35.5110 C   0  0  0  0  0  0  0  0  0  0  0  0
  -15.7571  -19.0724   35.3317 C   0  0  0  0  0  0  0  0  0  0  0  0
  -11.6302  -23.7359   29.5262 N   0  0  0  0  0  0  0  0  0  0  0  0
  -11.0903  -24.2848   28.2376 C   0  0  0  0  0  0  0  0  0  0  0  0
  -11.0465  -25.7508   27.9378 C   0  0  0  0  0  0  0  0  0  0  0  0
  -10.3761  -26.0512   29.2069 C   0  0  0  0  0  0  0  0  0  0  0  0
  -11.2597  -25.1533   30.0331 C   0  0  0  0  0  0  0  0  0  0  0  0
  -10.8366  -25.0879   31.4664 C   0  0  0  0  0  0  0  0  0  0  0  0
  -11.6212  -24.8207   32.4888 N   0  0  0  0  0  0  0  0  0  0  0  0
  -10.8580  -24.9136   33.6072 N   0  0  0  0  0  0  0  0  0  0  0  0
   -9.6091  -25.2047   33.2975 N   0  0  0  0  0  0  0  0  0  0  0  0
   -9.6079  -25.3891   31.9744 N   0  0  0  0  0  0  0  0  0  0  0  0
  -10.9509  -22.0672   31.2402 H   0  0  0  0  0  0  0  0  0  0  0  0
  -11.1884  -20.4963   33.0940 H   0  0  0  0  0  0  0  0  0  0  0  0
  -12.9414  -19.4959   34.9558 H   0  0  0  0  0  0  0  0  0  0  0  0
  -15.1899  -22.6452   31.3438 H   0  0  0  0  0  0  0  0  0  0  0  0
  -17.1369  -22.2290   34.1033 H   0  0  0  0  0  0  0  0  0  0  0  0
  -17.2235  -21.4341   32.5276 H   0  0  0  0  0  0  0  0  0  0  0  0
  -18.7965  -20.5283   34.3674 H   0  0  0  0  0  0  0  0  0  0  0  0
  -17.8569  -19.3420   33.4751 H   0  0  0  0  0  0  0  0  0  0  0  0
  -17.1757  -20.4317   36.2519 H   0  0  0  0  0  0  0  0  0  0  0  0
  -17.8311  -18.8316   35.9103 H   0  0  0  0  0  0  0  0  0  0  0  0
  -15.8010  -18.1123   34.8061 H   0  0  0  0  0  0  0  0  0  0  0  0
  -15.2970  -18.8823   36.3060 H   0  0  0  0  0  0  0  0  0  0  0  0
  -11.7008  -23.8073   27.4583 H   0  0  0  0  0  0  0  0  0  0  0  0
  -10.0927  -23.8317   28.1190 H   0  0  0  0  0  0  0  0  0  0  0  0
  -10.4616  -26.0054   27.0544 H   0  0  0  0  0  0  0  0  0  0  0  0
  -12.0450  -26.1938   27.8513 H   0  0  0  0  0  0  0  0  0  0  0  0
   -9.3245  -25.7458   29.2081 H   0  0  0  0  0  0  0  0  0  0  0  0
  -10.4517  -27.0913   29.5135 H   0  0  0  0  0  0  0  0  0  0  0  0
  -12.2299  -25.6803   30.1001 H   0  0  0  0  0  0  0  0  0  0  0  0
   -8.7663  -25.7411   31.5383 H   0  0  0  0  0  0  0  0  0  0  0  0
  1  2  2  0
  2  3  1  0
  3  4  2  0
  4  5  1  0
  5  6  2  0
  6  7  1  0
  7  8  1  0
  8  9  2  0
  9 10  1  0
 10 11  2  0
  9 12  1  0
 12 13  1  0
 13 14  1  0
 14 15  1  0
  2 16  1  0
 16 17  1  0
 17 18  1  0
 18 19  1  0
 19 20  1  0
 20 21  1  0
 21 22  2  0
 22 23  1  0
 23 24  2  0
 24 25  1  0
 11  3  1  0
 20 16  1  0
 25 21  1  0
 10  6  1  0
 15  8  1  0
  4 26  1  0
  5 27  1  0
  7 28  1  0
 11 29  1  0
 12 30  1  0
 12 31  1  0
 13 32  1  0
 13 33  1  0
 14 34  1  0
 14 35  1  0
 15 36  1  0
 15 37  1  0
 17 38  1  0
 17 39  1  0
 18 40  1  0
 18 41  1  0
 19 42  1  0
 19 43  1  0
 20 44  1  0
 25 45  1  0
M  END
>  <Energy>  (76) 
98.845608354820868

>  <compound_id>  (76) 
51703

>  <target_id>  (76) 
1

>  <reference_id>  (76) 
39

>  <inspiration_ids>  (76) 
[3, 39]

>  <energy_score>  (76) 
28.72369252299569

>  <distance_score>  (76) 
3.3127320590763953

>  <path>  (76) 
/opt/xchem-fragalysis-2/maxwin/BulkDock/SCRATCH/511021/C51703-P39/C51703-P39.minimised.mol

>  <scratch_subdir>  (76) 
/opt/xchem-fragalysis-2/maxwin/BulkDock/SCRATCH/511021/C51703-P39

>  <fragmenstein_runtime>  (76) 
57.141380310058594

>  <fragmenstein_outcome>  (76) 
too moved

>  <fragmenstein_mode>  (76) 
expansion

>  <fragmenstein_error>  (76) 


$$$$
C47073-P40
     RDKit          3D

 32 35  0  0  0  0  0  0  0  0999 V2000
   -1.0123  -14.9467   21.1950 C   0  0  0  0  0  0  0  0  0  0  0  0
   -2.0204  -15.7407   20.6194 C   0  0  0  0  0  0  0  0  0  0  0  0
   -3.1475  -16.4211   21.3247 C   0  0  0  0  0  0  0  0  0  0  0  0
   -4.4902  -17.2875   20.4332 C   0  0  0  0  0  0  0  0  0  0  0  0
   -5.6207  -17.8821   20.8319 N   0  0  0  0  0  0  0  0  0  0  0  0
   -6.4787  -18.1715   19.7599 C   0  0  0  0  0  0  0  0  0  0  0  0
   -6.5058  -17.5913   18.5667 C   0  0  0  0  0  0  0  0  0  0  0  0
   -4.7280  -17.5587   18.4504 S   0  0  0  0  0  0  0  0  0  0  0  0
   -7.8745  -17.4174   17.4397 C   0  0  0  0  0  0  0  0  0  0  0  0
   -9.1676  -18.5866   17.3511 C   0  0  0  0  0  0  0  0  0  0  0  0
   -8.1324  -19.9781   18.1255 C   0  0  0  0  0  0  0  0  0  0  0  0
   -7.1169  -19.3879   19.6178 C   0  0  0  0  0  0  0  0  0  0  0  0
   -3.0770  -16.0869   22.7896 C   0  0  0  0  0  0  0  0  0  0  0  0
   -3.8966  -16.3189   23.9543 C   0  0  0  0  0  0  0  0  0  0  0  0
   -3.4252  -15.6007   25.0322 C   0  0  0  0  0  0  0  0  0  0  0  0
   -2.3233  -14.9257   24.6186 N   0  0  0  0  0  0  0  0  0  0  0  0
   -2.0621  -15.2198   23.2951 C   0  0  0  0  0  0  0  0  0  0  0  0
   -1.0233  -14.6720   22.5442 C   0  0  0  0  0  0  0  0  0  0  0  0
   -0.2623  -14.4866   20.5553 H   0  0  0  0  0  0  0  0  0  0  0  0
   -2.0207  -15.7361   19.5284 H   0  0  0  0  0  0  0  0  0  0  0  0
   -8.4154  -16.5540   17.8348 H   0  0  0  0  0  0  0  0  0  0  0  0
   -7.6808  -16.9109   16.5115 H   0  0  0  0  0  0  0  0  0  0  0  0
   -9.7346  -18.7704   16.3860 H   0  0  0  0  0  0  0  0  0  0  0  0
  -10.0428  -18.2475   17.8411 H   0  0  0  0  0  0  0  0  0  0  0  0
   -8.8840  -20.6220   18.5644 H   0  0  0  0  0  0  0  0  0  0  0  0
   -7.5253  -20.6320   17.5427 H   0  0  0  0  0  0  0  0  0  0  0  0
   -7.6519  -19.5933   20.5343 H   0  0  0  0  0  0  0  0  0  0  0  0
   -6.1441  -19.9192   19.5694 H   0  0  0  0  0  0  0  0  0  0  0  0
   -4.7918  -16.9286   23.9756 H   0  0  0  0  0  0  0  0  0  0  0  0
   -3.8026  -15.5014   26.0404 H   0  0  0  0  0  0  0  0  0  0  0  0
   -1.7902  -14.2587   25.1625 H   0  0  0  0  0  0  0  0  0  0  0  0
   -0.2939  -13.9965   22.9832 H   0  0  0  0  0  0  0  0  0  0  0  0
  1  2  2  0
  2  3  1  0
  3  4  1  0
  4  5  2  0
  5  6  1  0
  6  7  2  0
  7  8  1  0
  7  9  1  0
  9 10  1  0
 10 11  1  0
 11 12  1  0
  3 13  2  0
 13 14  1  0
 14 15  2  0
 15 16  1  0
 16 17  1  0
 17 18  2  0
 18  1  1  0
  8  4  1  0
 17 13  1  0
 12  6  1  0
  1 19  1  0
  2 20  1  0
  9 21  1  0
  9 22  1  0
 10 23  1  0
 10 24  1  0
 11 25  1  0
 11 26  1  0
 12 27  1  0
 12 28  1  0
 14 29  1  0
 15 30  1  0
 16 31  1  0
 18 32  1  0
M  END
>  <Energy>  (77) 
306.87504396415727

>  <compound_id>  (77) 
47073

>  <target_id>  (77) 
1

>  <reference_id>  (77) 
40

>  <inspiration_ids>  (77) 
[40, 48]

>  <energy_score>  (77) 
181.18858718307132

>  <distance_score>  (77) 
12.923959417206962

>  <path>  (77) 
/opt/xchem-fragalysis-2/maxwin/BulkDock/SCRATCH/511021/C47073-P40/C47073-P40.minimised.mol

>  <scratch_subdir>  (77) 
/opt/xchem-fragalysis-2/maxwin/BulkDock/SCRATCH/511021/C47073-P40

>  <fragmenstein_runtime>  (77) 
5.54590368270874

>  <fragmenstein_outcome>  (77) 
too moved

>  <fragmenstein_mode>  (77) 
expansion

>  <fragmenstein_error>  (77) 


$$$$
C47073-P48
     RDKit          3D

 32 35  0  0  0  0  0  0  0  0999 V2000
   -6.6576   -6.7423   21.2512 C   0  0  0  0  0  0  0  0  0  0  0  0
   -7.3913   -7.6019   20.4235 C   0  0  0  0  0  0  0  0  0  0  0  0
   -7.3667   -9.0133   20.5539 C   0  0  0  0  0  0  0  0  0  0  0  0
   -8.1709   -9.9046   19.6398 C   0  0  0  0  0  0  0  0  0  0  0  0
   -9.0139  -10.8785   19.9746 N   0  0  0  0  0  0  0  0  0  0  0  0
   -9.8323  -11.2248   18.8917 C   0  0  0  0  0  0  0  0  0  0  0  0
   -9.4908  -10.6625   17.6826 C   0  0  0  0  0  0  0  0  0  0  0  0
   -8.1411   -9.6244   17.9091 S   0  0  0  0  0  0  0  0  0  0  0  0
  -10.2859  -10.7421   16.4093 C   0  0  0  0  0  0  0  0  0  0  0  0
  -11.6225  -11.5043   16.5760 C   0  0  0  0  0  0  0  0  0  0  0  0
  -12.1470  -11.5928   18.0191 C   0  0  0  0  0  0  0  0  0  0  0  0
  -11.0983  -11.9877   19.0801 C   0  0  0  0  0  0  0  0  0  0  0  0
   -6.5592   -9.5192   21.6056 C   0  0  0  0  0  0  0  0  0  0  0  0
   -6.2848  -10.8118   22.1228 C   0  0  0  0  0  0  0  0  0  0  0  0
   -5.3553  -10.7201   23.1278 C   0  0  0  0  0  0  0  0  0  0  0  0
   -5.0796   -9.4000   23.2793 N   0  0  0  0  0  0  0  0  0  0  0  0
   -5.8086   -8.6366   22.3969 C   0  0  0  0  0  0  0  0  0  0  0  0
   -5.8427   -7.2476   22.2521 C   0  0  0  0  0  0  0  0  0  0  0  0
   -6.7272   -5.6674   21.1001 H   0  0  0  0  0  0  0  0  0  0  0  0
   -8.0177   -7.1523   19.6536 H   0  0  0  0  0  0  0  0  0  0  0  0
  -10.5242   -9.7166   16.0964 H   0  0  0  0  0  0  0  0  0  0  0  0
   -9.6913  -11.1783   15.5994 H   0  0  0  0  0  0  0  0  0  0  0  0
  -12.3815  -11.0115   15.9542 H   0  0  0  0  0  0  0  0  0  0  0  0
  -11.5501  -12.5046   16.1553 H   0  0  0  0  0  0  0  0  0  0  0  0
  -13.0007  -12.2776   18.0680 H   0  0  0  0  0  0  0  0  0  0  0  0
  -12.5398  -10.6020   18.2872 H   0  0  0  0  0  0  0  0  0  0  0  0
  -10.8972  -13.0548   19.0336 H   0  0  0  0  0  0  0  0  0  0  0  0
  -11.5074  -11.7877   20.0773 H   0  0  0  0  0  0  0  0  0  0  0  0
   -6.7362  -11.7156   21.7681 H   0  0  0  0  0  0  0  0  0  0  0  0
   -4.8781  -11.4755   23.7379 H   0  0  0  0  0  0  0  0  0  0  0  0
   -4.4133   -9.0130   23.9342 H   0  0  0  0  0  0  0  0  0  0  0  0
   -5.2772   -6.5811   22.8874 H   0  0  0  0  0  0  0  0  0  0  0  0
  1  2  2  0
  2  3  1  0
  3  4  1  0
  4  5  2  0
  5  6  1  0
  6  7  2  0
  7  8  1  0
  7  9  1  0
  9 10  1  0
 10 11  1  0
 11 12  1  0
  3 13  2  0
 13 14  1  0
 14 15  2  0
 15 16  1  0
 16 17  1  0
 17 18  2  0
 18  1  1  0
  8  4  1  0
 17 13  1  0
 12  6  1  0
  1 19  1  0
  2 20  1  0
  9 21  1  0
  9 22  1  0
 10 23  1  0
 10 24  1  0
 11 25  1  0
 11 26  1  0
 12 27  1  0
 12 28  1  0
 14 29  1  0
 15 30  1  0
 16 31  1  0
 18 32  1  0
M  END
>  <Energy>  (78) 
54.133910074625646

>  <compound_id>  (78) 
47073

>  <target_id>  (78) 
1

>  <reference_id>  (78) 
48

>  <inspiration_ids>  (78) 
[40, 48]

>  <energy_score>  (78) 
-71.55254670646279

>  <distance_score>  (78) 
14.081727786619146

>  <path>  (78) 
/opt/xchem-fragalysis-2/maxwin/BulkDock/SCRATCH/511021/C47073-P48/C47073-P48.minimised.mol

>  <scratch_subdir>  (78) 
/opt/xchem-fragalysis-2/maxwin/BulkDock/SCRATCH/511021/C47073-P48

>  <fragmenstein_runtime>  (78) 
5.89910888671875

>  <fragmenstein_outcome>  (78) 
too moved

>  <fragmenstein_mode>  (78) 
expansion

>  <fragmenstein_error>  (78) 


$$$$
C37110-P40
     RDKit          3D

 47 49  0  0  0  0  0  0  0  0999 V2000
   -5.3940  -19.2968   19.5996 C   0  0  0  0  0  0  0  0  0  0  0  0
   -5.6513  -18.2577   20.7651 C   0  0  0  0  0  0  0  0  0  0  0  0
   -6.6978  -17.8004   21.7300 N   0  0  0  0  0  0  0  0  0  0  0  0
   -8.0182  -18.7724   21.0923 C   0  0  0  0  0  0  0  0  0  0  0  0
   -8.4784  -18.9826   19.2490 C   0  0  0  0  0  0  0  0  0  0  0  0
   -8.6550  -20.4093   18.2250 N   0  0  0  0  0  0  0  0  0  0  0  0
   -9.3024  -20.5866   16.6259 C   0  0  0  0  0  0  0  0  0  0  0  0
   -9.8067  -19.7006   15.9269 O   0  0  0  0  0  0  0  0  0  0  0  0
   -9.1807  -22.1891   15.6299 C   0  0  0  0  0  0  0  0  0  0  0  0
   -9.7727  -22.6668   14.2915 N   0  0  0  0  0  0  0  0  0  0  0  0
  -10.0996  -24.0242   14.0753 C   0  0  0  0  0  0  0  0  0  0  0  0
  -10.4326  -24.1775   12.7592 C   0  0  0  0  0  0  0  0  0  0  0  0
  -10.1412  -22.9281   12.2298 C   0  0  0  0  0  0  0  0  0  0  0  0
   -9.6465  -22.0570   13.1075 N   0  0  0  0  0  0  0  0  0  0  0  0
   -6.1176  -17.1123   23.4741 C   0  0  0  0  0  0  0  0  0  0  0  0
   -4.6470  -15.5333   24.1046 C   0  0  0  0  0  0  0  0  0  0  0  0
   -3.4087  -14.7184   23.7220 C   0  0  0  0  0  0  0  0  0  0  0  0
   -2.3632  -13.5847   24.9048 C   0  0  0  0  0  0  0  0  0  0  0  0
   -2.2768  -13.4102   26.2529 C   0  0  0  0  0  0  0  0  0  0  0  0
   -2.7637  -12.2861   27.4120 C   0  0  0  0  0  0  0  0  0  0  0  0
   -2.3943  -13.1083   28.8907 C   0  0  0  0  0  0  0  0  0  0  0  0
   -2.1905  -14.7015   28.1269 N   0  0  0  0  0  0  0  0  0  0  0  0
   -2.3079  -14.7471   26.5249 C   0  0  0  0  0  0  0  0  0  0  0  0
   -3.1923  -15.8160   25.2444 C   0  0  0  0  0  0  0  0  0  0  0  0
   -6.2388  -19.9584   19.4065 H   0  0  0  0  0  0  0  0  0  0  0  0
   -5.1369  -18.7748   18.6746 H   0  0  0  0  0  0  0  0  0  0  0  0
   -4.5544  -19.9579   19.8459 H   0  0  0  0  0  0  0  0  0  0  0  0
   -6.1605  -17.6469   20.0305 H   0  0  0  0  0  0  0  0  0  0  0  0
   -5.8013  -19.1803   21.3020 H   0  0  0  0  0  0  0  0  0  0  0  0
   -8.9008  -18.3151   21.5480 H   0  0  0  0  0  0  0  0  0  0  0  0
   -7.8686  -19.7834   21.4871 H   0  0  0  0  0  0  0  0  0  0  0  0
   -7.8005  -18.3422   18.6774 H   0  0  0  0  0  0  0  0  0  0  0  0
   -9.4743  -18.5300   19.1811 H   0  0  0  0  0  0  0  0  0  0  0  0
   -8.2434  -21.2656   18.5077 H   0  0  0  0  0  0  0  0  0  0  0  0
   -9.5670  -22.9759   16.1946 H   0  0  0  0  0  0  0  0  0  0  0  0
   -8.1512  -22.3970   15.3206 H   0  0  0  0  0  0  0  0  0  0  0  0
  -10.0870  -24.7357   14.8849 H   0  0  0  0  0  0  0  0  0  0  0  0
  -10.7855  -25.0674   12.2601 H   0  0  0  0  0  0  0  0  0  0  0  0
  -10.2277  -22.6096   11.2106 H   0  0  0  0  0  0  0  0  0  0  0  0
   -6.0963  -18.1500   23.8859 H   0  0  0  0  0  0  0  0  0  0  0  0
   -7.1825  -16.8146   23.6876 H   0  0  0  0  0  0  0  0  0  0  0  0
   -3.0554  -14.6076   22.7798 H   0  0  0  0  0  0  0  0  0  0  0  0
   -2.8052  -12.5192   24.7653 H   0  0  0  0  0  0  0  0  0  0  0  0
   -3.7680  -11.9375   27.3539 H   0  0  0  0  0  0  0  0  0  0  0  0
   -2.9896  -13.2072   29.7949 H   0  0  0  0  0  0  0  0  0  0  0  0
   -2.4677  -15.4862   28.6946 H   0  0  0  0  0  0  0  0  0  0  0  0
   -2.8661  -16.7969   25.6320 H   0  0  0  0  0  0  0  0  0  0  0  0
  1  2  1  0
  2  3  1  0
  3  4  1  0
  4  5  1  0
  5  6  1  0
  6  7  1  0
  7  8  2  0
  7  9  1  0
  9 10  1  0
 10 11  1  0
 11 12  2  0
 12 13  1  0
 13 14  2  0
  3 15  1  0
 15 16  1  0
 16 17  2  0
 17 18  1  0
 18 19  2  0
 19 20  1  0
 20 21  2  0
 21 22  1  0
 22 23  1  0
 23 24  2  0
 14 10  1  0
 24 16  1  0
 23 19  1  0
  1 25  1  0
  1 26  1  0
  1 27  1  0
  2 28  1  0
  2 29  1  0
  4 30  1  0
  4 31  1  0
  5 32  1  0
  5 33  1  0
  6 34  1  0
  9 35  1  0
  9 36  1  0
 11 37  1  0
 12 38  1  0
 13 39  1  0
 15 40  1  0
 15 41  1  0
 17 42  1  0
 18 43  1  0
 20 44  1  0
 21 45  1  0
 22 46  1  0
 24 47  1  0
M  END
>  <Energy>  (79) 
1200.7926561155261

>  <compound_id>  (79) 
37110

>  <target_id>  (79) 
1

>  <reference_id>  (79) 
40

>  <inspiration_ids>  (79) 
[40, 48]

>  <energy_score>  (79) 
1115.511289689427

>  <distance_score>  (79) 
9.275515589106295

>  <path>  (79) 
/opt/xchem-fragalysis-2/maxwin/BulkDock/SCRATCH/511021/C37110-P40/C37110-P40.minimised.mol

>  <scratch_subdir>  (79) 
/opt/xchem-fragalysis-2/maxwin/BulkDock/SCRATCH/511021/C37110-P40

>  <fragmenstein_runtime>  (79) 
15.03857707977295

>  <fragmenstein_outcome>  (79) 
too moved

>  <fragmenstein_mode>  (79) 
expansion

>  <fragmenstein_error>  (79) 


$$$$
C37110-P48
     RDKit          3D

 47 49  0  0  0  0  0  0  0  0999 V2000
   -6.5297  -17.6734   19.2689 C   0  0  0  0  0  0  0  0  0  0  0  0
   -4.6932  -17.2205   18.9611 C   0  0  0  0  0  0  0  0  0  0  0  0
   -3.6173  -16.8435   20.5619 N   0  0  0  0  0  0  0  0  0  0  0  0
   -4.7520  -18.6474   20.0190 C   0  0  0  0  0  0  0  0  0  0  0  0
   -5.7907  -20.1905   18.7470 C   0  0  0  0  0  0  0  0  0  0  0  0
   -7.5163  -20.6995   17.5932 N   0  0  0  0  0  0  0  0  0  0  0  0
   -7.8609  -22.0461   16.0851 C   0  0  0  0  0  0  0  0  0  0  0  0
   -7.1692  -22.8753   15.6237 O   0  0  0  0  0  0  0  0  0  0  0  0
   -9.3673  -22.0742   15.3271 C   0  0  0  0  0  0  0  0  0  0  0  0
   -9.9714  -23.1440   14.4264 N   0  0  0  0  0  0  0  0  0  0  0  0
  -10.0804  -24.5078   14.4982 C   0  0  0  0  0  0  0  0  0  0  0  0
  -10.7278  -24.9480   13.3647 C   0  0  0  0  0  0  0  0  0  0  0  0
  -10.9918  -23.7879   12.6383 C   0  0  0  0  0  0  0  0  0  0  0  0
  -10.5426  -22.6964   13.2535 N   0  0  0  0  0  0  0  0  0  0  0  0
   -2.1712  -15.3202   21.3863 C   0  0  0  0  0  0  0  0  0  0  0  0
   -1.4084  -14.4950   23.4369 C   0  0  0  0  0  0  0  0  0  0  0  0
   -1.9183  -13.6379   25.2191 C   0  0  0  0  0  0  0  0  0  0  0  0
   -2.3751  -11.9081   26.0721 C   0  0  0  0  0  0  0  0  0  0  0  0
   -1.4650  -10.0574   26.0562 C   0  0  0  0  0  0  0  0  0  0  0  0
    0.1318   -9.9295   27.6531 C   0  0  0  0  0  0  0  0  0  0  0  0
    1.8178  -10.3627   26.3850 C   0  0  0  0  0  0  0  0  0  0  0  0
    1.4375  -10.9675   24.8520 N   0  0  0  0  0  0  0  0  0  0  0  0
   -0.2963  -10.8863   24.4179 C   0  0  0  0  0  0  0  0  0  0  0  0
   -0.4863  -12.7603   23.7351 C   0  0  0  0  0  0  0  0  0  0  0  0
   -6.8340  -18.6467   19.6581 H   0  0  0  0  0  0  0  0  0  0  0  0
   -7.1189  -17.6583   18.3456 H   0  0  0  0  0  0  0  0  0  0  0  0
   -6.9478  -17.0507   20.0665 H   0  0  0  0  0  0  0  0  0  0  0  0
   -4.8328  -16.5082   18.1664 H   0  0  0  0  0  0  0  0  0  0  0  0
   -4.2942  -17.9692   18.2358 H   0  0  0  0  0  0  0  0  0  0  0  0
   -5.4879  -18.5646   20.8602 H   0  0  0  0  0  0  0  0  0  0  0  0
   -4.1656  -19.5421   20.3649 H   0  0  0  0  0  0  0  0  0  0  0  0
   -4.9657  -20.6654   18.1934 H   0  0  0  0  0  0  0  0  0  0  0  0
   -6.0401  -20.8673   19.5754 H   0  0  0  0  0  0  0  0  0  0  0  0
   -8.3406  -20.1569   17.8280 H   0  0  0  0  0  0  0  0  0  0  0  0
   -8.8863  -21.7341   14.4100 H   0  0  0  0  0  0  0  0  0  0  0  0
  -10.0244  -21.2612   15.5215 H   0  0  0  0  0  0  0  0  0  0  0  0
   -9.6634  -25.0954   15.2924 H   0  0  0  0  0  0  0  0  0  0  0  0
  -10.9569  -25.9710   13.1045 H   0  0  0  0  0  0  0  0  0  0  0  0
  -11.4883  -23.6856   11.6840 H   0  0  0  0  0  0  0  0  0  0  0  0
   -1.3032  -15.9536   21.1004 H   0  0  0  0  0  0  0  0  0  0  0  0
   -2.2498  -14.4365   20.7710 H   0  0  0  0  0  0  0  0  0  0  0  0
   -2.4031  -14.3499   25.9208 H   0  0  0  0  0  0  0  0  0  0  0  0
   -2.7671  -12.0663   27.0850 H   0  0  0  0  0  0  0  0  0  0  0  0
    0.1271   -9.0409   28.2968 H   0  0  0  0  0  0  0  0  0  0  0  0
    2.7280   -9.6985   26.2573 H   0  0  0  0  0  0  0  0  0  0  0  0
    2.0278  -10.7080   24.0775 H   0  0  0  0  0  0  0  0  0  0  0  0
    0.5655  -13.0551   23.9235 H   0  0  0  0  0  0  0  0  0  0  0  0
  1  2  1  0
  2  3  1  0
  3  4  1  0
  4  5  1  0
  5  6  1  0
  6  7  1  0
  7  8  2  0
  7  9  1  0
  9 10  1  0
 10 11  1  0
 11 12  2  0
 12 13  1  0
 13 14  2  0
  3 15  1  0
 15 16  1  0
 16 17  2  0
 17 18  1  0
 18 19  2  0
 19 20  1  0
 20 21  2  0
 21 22  1  0
 22 23  1  0
 23 24  2  0
 14 10  1  0
 24 16  1  0
 23 19  1  0
  1 25  1  0
  1 26  1  0
  1 27  1  0
  2 28  1  0
  2 29  1  0
  4 30  1  0
  4 31  1  0
  5 32  1  0
  5 33  1  0
  6 34  1  0
  9 35  1  0
  9 36  1  0
 11 37  1  0
 12 38  1  0
 13 39  1  0
 15 40  1  0
 15 41  1  0
 17 42  1  0
 18 43  1  0
 20 44  1  0
 21 45  1  0
 22 46  1  0
 24 47  1  0
M  END
>  <Energy>  (80) 
3309.6308463134565

>  <compound_id>  (80) 
37110

>  <target_id>  (80) 
1

>  <reference_id>  (80) 
48

>  <inspiration_ids>  (80) 
[40, 48]

>  <energy_score>  (80) 
3224.349479887328

>  <distance_score>  (80) 
8.105590643617294

>  <path>  (80) 
/opt/xchem-fragalysis-2/maxwin/BulkDock/SCRATCH/511021/C37110-P48/C37110-P48.minimised.mol

>  <scratch_subdir>  (80) 
/opt/xchem-fragalysis-2/maxwin/BulkDock/SCRATCH/511021/C37110-P48

>  <fragmenstein_runtime>  (80) 
17.987157583236694

>  <fragmenstein_outcome>  (80) 
too moved

>  <fragmenstein_mode>  (80) 
expansion

>  <fragmenstein_error>  (80) 


$$$$
C8332-P40
     RDKit          3D

 40 42  0  0  0  0  0  0  0  0999 V2000
   -7.3650  -11.4262   28.4993 C   0  0  0  0  0  0  0  0  0  0  0  0
   -7.4379  -10.3038   27.6261 O   0  0  0  0  0  0  0  0  0  0  0  0
   -7.4291   -9.1182   28.3629 C   0  0  0  0  0  0  0  0  0  0  0  0
   -8.8153   -8.1954   28.1987 C   0  0  0  0  0  0  0  0  0  0  0  0
  -10.0817   -8.8443   27.6424 C   0  0  0  0  0  0  0  0  0  0  0  0
  -10.2288  -10.2927   27.8973 N   0  0  0  0  0  0  0  0  0  0  0  0
  -10.4379  -10.5108   29.3427 C   0  0  0  0  0  0  0  0  0  0  0  0
  -11.3366  -11.0157   27.1865 C   0  0  0  0  0  0  0  0  0  0  0  0
  -11.5746  -10.9753   25.6685 C   0  0  0  0  0  0  0  0  0  0  0  0
  -10.6501  -10.4914   24.7588 C   0  0  0  0  0  0  0  0  0  0  0  0
  -11.1322  -10.0127   23.5443 C   0  0  0  0  0  0  0  0  0  0  0  0
  -12.4841  -10.1069   23.2503 C   0  0  0  0  0  0  0  0  0  0  0  0
  -13.2855  -10.8345   24.0950 C   0  0  0  0  0  0  0  0  0  0  0  0
  -12.8502  -11.2885   25.2823 N   0  0  0  0  0  0  0  0  0  0  0  0
   -8.8313   -6.5603   28.4606 C   0  0  0  0  0  0  0  0  0  0  0  0
   -7.4977   -5.6691   28.9329 C   0  0  0  0  0  0  0  0  0  0  0  0
   -5.9483   -6.4500   29.2177 C   0  0  0  0  0  0  0  0  0  0  0  0
   -4.7347   -7.7595   28.9554 N   0  0  0  0  0  0  0  0  0  0  0  0
   -3.6804   -7.5540   27.7906 C   0  0  0  0  0  0  0  0  0  0  0  0
   -4.9449   -8.1048   27.6801 C   0  0  0  0  0  0  0  0  0  0  0  0
   -5.8605   -8.2965   28.7962 C   0  0  0  0  0  0  0  0  0  0  0  0
   -6.5207  -12.0495   28.2034 H   0  0  0  0  0  0  0  0  0  0  0  0
   -7.2656  -11.1667   29.5593 H   0  0  0  0  0  0  0  0  0  0  0  0
   -8.2573  -12.0435   28.3674 H   0  0  0  0  0  0  0  0  0  0  0  0
  -10.0504   -8.6463   26.5684 H   0  0  0  0  0  0  0  0  0  0  0  0
  -10.9540   -8.3085   28.0372 H   0  0  0  0  0  0  0  0  0  0  0  0
  -10.4821  -11.5828   29.5679 H   0  0  0  0  0  0  0  0  0  0  0  0
   -9.6178  -10.1121   29.9441 H   0  0  0  0  0  0  0  0  0  0  0  0
  -11.3679  -10.0495   29.6957 H   0  0  0  0  0  0  0  0  0  0  0  0
  -12.2853  -10.6896   27.6367 H   0  0  0  0  0  0  0  0  0  0  0  0
  -11.2245  -12.0835   27.4184 H   0  0  0  0  0  0  0  0  0  0  0  0
   -9.6202  -10.3150   25.0563 H   0  0  0  0  0  0  0  0  0  0  0  0
  -10.4894   -9.4277   22.8985 H   0  0  0  0  0  0  0  0  0  0  0  0
  -12.9079   -9.5883   22.3984 H   0  0  0  0  0  0  0  0  0  0  0  0
  -14.3365  -11.0034   23.8845 H   0  0  0  0  0  0  0  0  0  0  0  0
   -9.7758   -6.0319   28.3302 H   0  0  0  0  0  0  0  0  0  0  0  0
   -7.5684   -4.6248   29.2343 H   0  0  0  0  0  0  0  0  0  0  0  0
   -4.1873   -7.7771   29.8020 H   0  0  0  0  0  0  0  0  0  0  0  0
   -2.8081   -7.1937   28.3420 H   0  0  0  0  0  0  0  0  0  0  0  0
   -5.4430   -8.5811   26.9362 H   0  0  0  0  0  0  0  0  0  0  0  0
  1  2  1  0
  2  3  1  0
  3  4  2  0
  4  5  1  0
  5  6  1  0
  6  7  1  0
  6  8  1  0
  8  9  1  0
  9 10  2  0
 10 11  1  0
 11 12  2  0
 12 13  1  0
 13 14  2  0
  4 15  1  0
 15 16  2  0
 16 17  1  0
 17 18  1  0
 18 19  1  0
 19 20  2  0
 20 21  1  0
 21  3  1  0
 14  9  1  0
 21 17  2  0
  1 22  1  0
  1 23  1  0
  1 24  1  0
  5 25  1  0
  5 26  1  0
  7 27  1  0
  7 28  1  0
  7 29  1  0
  8 30  1  0
  8 31  1  0
 10 32  1  0
 11 33  1  0
 12 34  1  0
 13 35  1  0
 15 36  1  0
 16 37  1  0
 18 38  1  0
 19 39  1  0
 20 40  1  0
M  END
>  <Energy>  (81) 
586.88854637751649

>  <compound_id>  (81) 
8332

>  <target_id>  (81) 
1

>  <reference_id>  (81) 
40

>  <inspiration_ids>  (81) 
[40, 48]

>  <energy_score>  (81) 
485.32249774899606

>  <distance_score>  (81) 
14.933544478794094

>  <path>  (81) 
/opt/xchem-fragalysis-2/maxwin/BulkDock/SCRATCH/511021/C8332-P40/C8332-P40.minimised.mol

>  <scratch_subdir>  (81) 
/opt/xchem-fragalysis-2/maxwin/BulkDock/SCRATCH/511021/C8332-P40

>  <fragmenstein_runtime>  (81) 
10.185091018676758

>  <fragmenstein_outcome>  (81) 
too moved

>  <fragmenstein_mode>  (81) 
expansion

>  <fragmenstein_error>  (81) 


$$$$
C8332-P48
     RDKit          3D

 40 42  0  0  0  0  0  0  0  0999 V2000
   -4.2536   -9.0675   34.5599 C   0  0  0  0  0  0  0  0  0  0  0  0
   -5.0603   -8.9992   33.2501 O   0  0  0  0  0  0  0  0  0  0  0  0
   -4.5211   -8.6455   31.8966 C   0  0  0  0  0  0  0  0  0  0  0  0
   -5.6942   -8.6729   30.6154 C   0  0  0  0  0  0  0  0  0  0  0  0
   -6.8940  -10.1149   29.8562 C   0  0  0  0  0  0  0  0  0  0  0  0
   -6.8252  -11.6127   29.4606 N   0  0  0  0  0  0  0  0  0  0  0  0
   -7.6010  -12.4206   30.4278 C   0  0  0  0  0  0  0  0  0  0  0  0
   -7.6318  -11.7461   28.1153 C   0  0  0  0  0  0  0  0  0  0  0  0
   -7.5381  -13.0146   27.2182 C   0  0  0  0  0  0  0  0  0  0  0  0
   -6.8415  -12.9492   26.0106 C   0  0  0  0  0  0  0  0  0  0  0  0
   -6.5404  -14.0996   25.2935 C   0  0  0  0  0  0  0  0  0  0  0  0
   -7.0749  -15.2955   25.7121 C   0  0  0  0  0  0  0  0  0  0  0  0
   -7.9265  -15.2583   26.8031 C   0  0  0  0  0  0  0  0  0  0  0  0
   -8.1627  -14.1605   27.5663 N   0  0  0  0  0  0  0  0  0  0  0  0
   -4.8612   -7.9593   29.1835 C   0  0  0  0  0  0  0  0  0  0  0  0
   -3.1666   -7.4334   29.3480 C   0  0  0  0  0  0  0  0  0  0  0  0
   -2.3526   -7.5190   30.6125 C   0  0  0  0  0  0  0  0  0  0  0  0
   -1.0373   -7.1794   30.8039 N   0  0  0  0  0  0  0  0  0  0  0  0
   -0.6859   -7.4578   32.0792 C   0  0  0  0  0  0  0  0  0  0  0  0
   -1.7820   -8.0175   32.7038 C   0  0  0  0  0  0  0  0  0  0  0  0
   -2.9082   -8.1486   31.7974 C   0  0  0  0  0  0  0  0  0  0  0  0
   -4.6316   -9.9026   35.1590 H   0  0  0  0  0  0  0  0  0  0  0  0
   -4.3827   -8.1879   35.1551 H   0  0  0  0  0  0  0  0  0  0  0  0
   -3.2053   -9.1692   34.3960 H   0  0  0  0  0  0  0  0  0  0  0  0
   -7.0188   -9.6471   28.8573 H   0  0  0  0  0  0  0  0  0  0  0  0
   -7.9349  -10.0540   30.1774 H   0  0  0  0  0  0  0  0  0  0  0  0
   -7.4252  -13.4862   30.2471 H   0  0  0  0  0  0  0  0  0  0  0  0
   -8.6807  -12.2362   30.3724 H   0  0  0  0  0  0  0  0  0  0  0  0
   -7.3152  -12.2167   31.4636 H   0  0  0  0  0  0  0  0  0  0  0  0
   -7.3303  -10.9278   27.4507 H   0  0  0  0  0  0  0  0  0  0  0  0
   -8.6979  -11.5653   28.3118 H   0  0  0  0  0  0  0  0  0  0  0  0
   -6.5154  -11.9922   25.6441 H   0  0  0  0  0  0  0  0  0  0  0  0
   -5.8868  -14.0419   24.4363 H   0  0  0  0  0  0  0  0  0  0  0  0
   -6.8220  -16.1978   25.1787 H   0  0  0  0  0  0  0  0  0  0  0  0
   -8.4402  -16.1271   27.1824 H   0  0  0  0  0  0  0  0  0  0  0  0
   -5.2603   -8.1717   28.1953 H   0  0  0  0  0  0  0  0  0  0  0  0
   -2.6237   -7.1824   28.4252 H   0  0  0  0  0  0  0  0  0  0  0  0
   -0.4572   -6.7204   30.1149 H   0  0  0  0  0  0  0  0  0  0  0  0
    0.2958   -7.2151   32.4627 H   0  0  0  0  0  0  0  0  0  0  0  0
   -1.7298   -8.2551   33.7507 H   0  0  0  0  0  0  0  0  0  0  0  0
  1  2  1  0
  2  3  1  0
  3  4  2  0
  4  5  1  0
  5  6  1  0
  6  7  1  0
  6  8  1  0
  8  9  1  0
  9 10  2  0
 10 11  1  0
 11 12  2  0
 12 13  1  0
 13 14  2  0
  4 15  1  0
 15 16  2  0
 16 17  1  0
 17 18  1  0
 18 19  1  0
 19 20  2  0
 20 21  1  0
 21  3  1  0
 14  9  1  0
 21 17  2  0
  1 22  1  0
  1 23  1  0
  1 24  1  0
  5 25  1  0
  5 26  1  0
  7 27  1  0
  7 28  1  0
  7 29  1  0
  8 30  1  0
  8 31  1  0
 10 32  1  0
 11 33  1  0
 12 34  1  0
 13 35  1  0
 15 36  1  0
 16 37  1  0
 18 38  1  0
 19 39  1  0
 20 40  1  0
M  END
>  <Energy>  (82) 
372.32418445491254

>  <compound_id>  (82) 
8332

>  <target_id>  (82) 
1

>  <reference_id>  (82) 
48

>  <inspiration_ids>  (82) 
[40, 48]

>  <energy_score>  (82) 
270.7581358263987

>  <distance_score>  (82) 
14.10363991678488

>  <path>  (82) 
/opt/xchem-fragalysis-2/maxwin/BulkDock/SCRATCH/511021/C8332-P48/C8332-P48.minimised.mol

>  <scratch_subdir>  (82) 
/opt/xchem-fragalysis-2/maxwin/BulkDock/SCRATCH/511021/C8332-P48

>  <fragmenstein_runtime>  (82) 
11.278190612792969

>  <fragmenstein_outcome>  (82) 
too moved

>  <fragmenstein_mode>  (82) 
expansion

>  <fragmenstein_error>  (82) 


$$$$
C42690-P40
     RDKit          3D

 36 38  0  0  0  0  0  0  0  0999 V2000
    4.0981  -11.0371   19.7659 C   0  0  0  0  0  0  0  0  0  0  0  0
    3.2326  -11.1900   20.5849 C   0  0  0  0  0  0  0  0  0  0  0  0
    2.1618  -11.3777   21.5979 C   0  0  0  0  0  0  0  0  0  0  0  0
    2.6124  -11.7687   23.0711 N   0  0  0  0  0  0  0  0  0  0  0  0
    3.8128  -11.0084   23.4543 C   0  0  0  0  0  0  0  0  0  0  0  0
    4.9834  -11.2767   23.3300 O   0  0  0  0  0  0  0  0  0  0  0  0
    3.3245   -9.6424   24.0584 C   0  0  0  0  0  0  0  0  0  0  0  0
    4.2628   -8.5762   24.6360 C   0  0  0  0  0  0  0  0  0  0  0  0
    5.4373   -8.1306   24.0651 C   0  0  0  0  0  0  0  0  0  0  0  0
    5.8510   -6.9870   24.7004 N   0  0  0  0  0  0  0  0  0  0  0  0
    4.9862   -6.6501   25.7154 C   0  0  0  0  0  0  0  0  0  0  0  0
    4.9856   -5.5436   26.5919 C   0  0  0  0  0  0  0  0  0  0  0  0
    3.9803   -5.4463   27.5658 C   0  0  0  0  0  0  0  0  0  0  0  0
    3.0298   -6.4534   27.6672 C   0  0  0  0  0  0  0  0  0  0  0  0
    1.9912   -6.3970   28.7174 N   0  0  0  0  0  0  0  0  0  0  0  0
    1.1868   -7.3453   28.7759 O   0  0  0  0  0  0  0  0  0  0  0  0
    1.9961   -5.4479   29.5088 O   0  0  0  0  0  0  0  0  0  0  0  0
    3.0650   -7.5505   26.7765 C   0  0  0  0  0  0  0  0  0  0  0  0
    4.0218   -7.6541   25.7451 C   0  0  0  0  0  0  0  0  0  0  0  0
    2.4715  -13.1245   22.5227 C   0  0  0  0  0  0  0  0  0  0  0  0
    3.0838  -13.7981   21.5613 N   0  0  0  0  0  0  0  0  0  0  0  0
    2.5596  -15.0824   21.4213 C   0  0  0  0  0  0  0  0  0  0  0  0
    1.5444  -15.4097   22.2894 C   0  0  0  0  0  0  0  0  0  0  0  0
    1.2434  -14.0773   23.3395 S   0  0  0  0  0  0  0  0  0  0  0  0
    4.8827  -10.9289   19.0536 H   0  0  0  0  0  0  0  0  0  0  0  0
    1.2550  -11.8808   21.2284 H   0  0  0  0  0  0  0  0  0  0  0  0
    1.7868  -10.3551   21.7323 H   0  0  0  0  0  0  0  0  0  0  0  0
    2.5579   -9.8477   24.8060 H   0  0  0  0  0  0  0  0  0  0  0  0
    2.8445   -9.1240   23.2225 H   0  0  0  0  0  0  0  0  0  0  0  0
    5.9796   -8.4983   23.2023 H   0  0  0  0  0  0  0  0  0  0  0  0
    6.6555   -6.4431   24.4214 H   0  0  0  0  0  0  0  0  0  0  0  0
    5.7547   -4.7785   26.5158 H   0  0  0  0  0  0  0  0  0  0  0  0
    3.9820   -4.5916   28.2397 H   0  0  0  0  0  0  0  0  0  0  0  0
    2.3852   -8.3838   26.8705 H   0  0  0  0  0  0  0  0  0  0  0  0
    2.9718  -15.7314   20.6584 H   0  0  0  0  0  0  0  0  0  0  0  0
    0.9894  -16.3298   22.3678 H   0  0  0  0  0  0  0  0  0  0  0  0
  1  2  3  0
  2  3  1  0
  3  4  1  0
  4  5  1  0
  5  6  2  0
  5  7  1  0
  7  8  1  0
  8  9  2  0
  9 10  1  0
 10 11  1  0
 11 12  2  0
 12 13  1  0
 13 14  2  0
 14 15  1  0
 15 16  2  0
 15 17  1  0
 14 18  1  0
 18 19  2  0
  4 20  1  0
 20 21  2  0
 21 22  1  0
 22 23  2  0
 23 24  1  0
 19  8  1  0
 24 20  1  0
 19 11  1  0
  1 25  1  0
  3 26  1  0
  3 27  1  0
  7 28  1  0
  7 29  1  0
  9 30  1  0
 10 31  1  0
 12 32  1  0
 13 33  1  0
 18 34  1  0
 22 35  1  0
 23 36  1  0
M  CHG  2  15   1  17  -1
M  END
>  <Energy>  (83) 
137.80643842422108

>  <compound_id>  (83) 
42690

>  <target_id>  (83) 
1

>  <reference_id>  (83) 
40

>  <inspiration_ids>  (83) 
[40, 48]

>  <energy_score>  (83) 
-10.536734666735128

>  <distance_score>  (83) 
14.6900566307404

>  <path>  (83) 
/opt/xchem-fragalysis-2/maxwin/BulkDock/SCRATCH/511021/C42690-P40/C42690-P40.minimised.mol

>  <scratch_subdir>  (83) 
/opt/xchem-fragalysis-2/maxwin/BulkDock/SCRATCH/511021/C42690-P40

>  <fragmenstein_runtime>  (83) 
14.326282024383545

>  <fragmenstein_outcome>  (83) 
too moved

>  <fragmenstein_mode>  (83) 
expansion

>  <fragmenstein_error>  (83) 


$$$$
C42690-P48
     RDKit          3D

 36 38  0  0  0  0  0  0  0  0999 V2000
   -6.2746  -18.4641   18.7768 C   0  0  0  0  0  0  0  0  0  0  0  0
   -5.9234  -19.2063   19.6259 C   0  0  0  0  0  0  0  0  0  0  0  0
   -5.6905  -19.7479   20.9272 C   0  0  0  0  0  0  0  0  0  0  0  0
   -6.3114  -18.7054   22.0334 N   0  0  0  0  0  0  0  0  0  0  0  0
   -6.2106  -17.3847   21.5683 C   0  0  0  0  0  0  0  0  0  0  0  0
   -7.0083  -16.7424   20.9192 O   0  0  0  0  0  0  0  0  0  0  0  0
   -4.6108  -16.2784   22.1486 C   0  0  0  0  0  0  0  0  0  0  0  0
   -4.4251  -14.9845   23.7553 C   0  0  0  0  0  0  0  0  0  0  0  0
   -3.1397  -14.8011   24.4502 C   0  0  0  0  0  0  0  0  0  0  0  0
   -3.2643  -14.7493   25.7964 N   0  0  0  0  0  0  0  0  0  0  0  0
   -4.5128  -14.3248   26.1113 C   0  0  0  0  0  0  0  0  0  0  0  0
   -4.8874  -13.8511   27.3747 C   0  0  0  0  0  0  0  0  0  0  0  0
   -5.9214  -12.9509   27.4229 C   0  0  0  0  0  0  0  0  0  0  0  0
   -6.4737  -12.5274   26.2214 C   0  0  0  0  0  0  0  0  0  0  0  0
   -7.0712  -11.1856   26.2836 N   0  0  0  0  0  0  0  0  0  0  0  0
   -6.7159  -10.3594   25.4282 O   0  0  0  0  0  0  0  0  0  0  0  0
   -7.8584  -10.9500   27.2144 O   0  0  0  0  0  0  0  0  0  0  0  0
   -6.2511  -13.2115   24.9747 C   0  0  0  0  0  0  0  0  0  0  0  0
   -5.2698  -14.2680   24.9083 C   0  0  0  0  0  0  0  0  0  0  0  0
   -7.4057  -19.6582   21.9861 C   0  0  0  0  0  0  0  0  0  0  0  0
   -8.3987  -19.8516   21.1437 N   0  0  0  0  0  0  0  0  0  0  0  0
   -9.3632  -20.7104   21.6376 C   0  0  0  0  0  0  0  0  0  0  0  0
   -9.0742  -21.2523   22.8612 C   0  0  0  0  0  0  0  0  0  0  0  0
   -7.6233  -20.5612   23.4624 S   0  0  0  0  0  0  0  0  0  0  0  0
   -6.9128  -17.8140   18.2444 H   0  0  0  0  0  0  0  0  0  0  0  0
   -5.7774  -20.7993   21.1778 H   0  0  0  0  0  0  0  0  0  0  0  0
   -4.6153  -19.7365   20.8059 H   0  0  0  0  0  0  0  0  0  0  0  0
   -3.9445  -16.0482   21.3113 H   0  0  0  0  0  0  0  0  0  0  0  0
   -3.9694  -17.0050   22.3251 H   0  0  0  0  0  0  0  0  0  0  0  0
   -2.1265  -14.7664   24.0789 H   0  0  0  0  0  0  0  0  0  0  0  0
   -2.4843  -14.7069   26.4351 H   0  0  0  0  0  0  0  0  0  0  0  0
   -4.2718  -14.0203   28.2536 H   0  0  0  0  0  0  0  0  0  0  0  0
   -6.1478  -12.4522   28.3624 H   0  0  0  0  0  0  0  0  0  0  0  0
   -6.6682  -12.8130   24.0577 H   0  0  0  0  0  0  0  0  0  0  0  0
  -10.2557  -20.9085   21.0618 H   0  0  0  0  0  0  0  0  0  0  0  0
   -9.6537  -21.9481   23.4496 H   0  0  0  0  0  0  0  0  0  0  0  0
  1  2  3  0
  2  3  1  0
  3  4  1  0
  4  5  1  0
  5  6  2  0
  5  7  1  0
  7  8  1  0
  8  9  2  0
  9 10  1  0
 10 11  1  0
 11 12  2  0
 12 13  1  0
 13 14  2  0
 14 15  1  0
 15 16  2  0
 15 17  1  0
 14 18  1  0
 18 19  2  0
  4 20  1  0
 20 21  2  0
 21 22  1  0
 22 23  2  0
 23 24  1  0
 19  8  1  0
 24 20  1  0
 19 11  1  0
  1 25  1  0
  3 26  1  0
  3 27  1  0
  7 28  1  0
  7 29  1  0
  9 30  1  0
 10 31  1  0
 12 32  1  0
 13 33  1  0
 18 34  1  0
 22 35  1  0
 23 36  1  0
M  CHG  2  15   1  17  -1
M  END
>  <Energy>  (84) 
378.87129143092784

>  <compound_id>  (84) 
42690

>  <target_id>  (84) 
1

>  <reference_id>  (84) 
48

>  <inspiration_ids>  (84) 
[40, 48]

>  <energy_score>  (84) 
230.52811833997373

>  <distance_score>  (84) 
12.47651065108562

>  <path>  (84) 
/opt/xchem-fragalysis-2/maxwin/BulkDock/SCRATCH/511021/C42690-P48/C42690-P48.minimised.mol

>  <scratch_subdir>  (84) 
/opt/xchem-fragalysis-2/maxwin/BulkDock/SCRATCH/511021/C42690-P48

>  <fragmenstein_runtime>  (84) 
11.78474235534668

>  <fragmenstein_outcome>  (84) 
too moved

>  <fragmenstein_mode>  (84) 
expansion

>  <fragmenstein_error>  (84) 


$$$$
C42691-P40
     RDKit          3D

 44 46  0  0  0  0  0  0  0  0999 V2000
    3.6648  -16.4318   14.8565 C   0  0  0  0  0  0  0  0  0  0  0  0
    4.5314  -17.5837   15.3545 C   0  0  0  0  0  0  0  0  0  0  0  0
    3.9266  -18.4404   16.5104 C   0  0  0  0  0  0  0  0  0  0  0  0
    5.0446  -19.4077   16.9829 C   0  0  0  0  0  0  0  0  0  0  0  0
    3.6375  -17.5292   17.6918 N   0  0  0  0  0  0  0  0  0  0  0  0
    4.4608  -16.4741   18.3243 C   0  0  0  0  0  0  0  0  0  0  0  0
    5.5301  -16.0237   18.0094 O   0  0  0  0  0  0  0  0  0  0  0  0
    3.8076  -15.8911   19.6505 C   0  0  0  0  0  0  0  0  0  0  0  0
    4.1656  -14.4186   20.0416 C   0  0  0  0  0  0  0  0  0  0  0  0
    4.4124  -13.4006   19.1317 C   0  0  0  0  0  0  0  0  0  0  0  0
    4.5764  -12.2124   19.7883 N   0  0  0  0  0  0  0  0  0  0  0  0
    4.4156  -12.3776   21.1397 C   0  0  0  0  0  0  0  0  0  0  0  0
    4.4365  -11.3962   22.1406 C   0  0  0  0  0  0  0  0  0  0  0  0
    4.2572  -11.8140   23.4473 C   0  0  0  0  0  0  0  0  0  0  0  0
    4.0604  -13.1626   23.7335 C   0  0  0  0  0  0  0  0  0  0  0  0
    4.0167  -14.1531   22.7194 C   0  0  0  0  0  0  0  0  0  0  0  0
    3.8571  -15.5856   23.1381 C   0  0  0  0  0  0  0  0  0  0  0  0
    4.1981  -13.7500   21.3647 C   0  0  0  0  0  0  0  0  0  0  0  0
    2.7306  -19.3965   16.0358 C   0  0  0  0  0  0  0  0  0  0  0  0
    1.9989  -20.1639   16.8375 N   0  0  0  0  0  0  0  0  0  0  0  0
    1.2517  -21.0796   16.0948 C   0  0  0  0  0  0  0  0  0  0  0  0
    1.2816  -20.9345   14.7295 C   0  0  0  0  0  0  0  0  0  0  0  0
    2.4116  -19.7196   14.3329 S   0  0  0  0  0  0  0  0  0  0  0  0
    3.3867  -15.7515   15.6662 H   0  0  0  0  0  0  0  0  0  0  0  0
    2.7535  -16.7827   14.3697 H   0  0  0  0  0  0  0  0  0  0  0  0
    4.2211  -15.8480   14.1153 H   0  0  0  0  0  0  0  0  0  0  0  0
    4.8078  -18.2164   14.5023 H   0  0  0  0  0  0  0  0  0  0  0  0
    5.4790  -17.1433   15.6913 H   0  0  0  0  0  0  0  0  0  0  0  0
    4.7081  -20.0118   17.8342 H   0  0  0  0  0  0  0  0  0  0  0  0
    5.9388  -18.8635   17.3079 H   0  0  0  0  0  0  0  0  0  0  0  0
    5.3436  -20.0964   16.1840 H   0  0  0  0  0  0  0  0  0  0  0  0
    2.7552  -17.5970   18.1781 H   0  0  0  0  0  0  0  0  0  0  0  0
    2.7171  -15.9514   19.5676 H   0  0  0  0  0  0  0  0  0  0  0  0
    4.1352  -16.5566   20.4552 H   0  0  0  0  0  0  0  0  0  0  0  0
    4.4755  -13.4292   18.0514 H   0  0  0  0  0  0  0  0  0  0  0  0
    4.7562  -11.3254   19.3408 H   0  0  0  0  0  0  0  0  0  0  0  0
    4.5906  -10.3483   21.9080 H   0  0  0  0  0  0  0  0  0  0  0  0
    4.2834  -11.0783   24.2431 H   0  0  0  0  0  0  0  0  0  0  0  0
    3.9415  -13.4580   24.7740 H   0  0  0  0  0  0  0  0  0  0  0  0
    3.2155  -16.1209   22.4367 H   0  0  0  0  0  0  0  0  0  0  0  0
    3.3944  -15.6654   24.1272 H   0  0  0  0  0  0  0  0  0  0  0  0
    4.8357  -16.0741   23.1714 H   0  0  0  0  0  0  0  0  0  0  0  0
    0.6788  -21.8332   16.6190 H   0  0  0  0  0  0  0  0  0  0  0  0
    0.7499  -21.4943   13.9741 H   0  0  0  0  0  0  0  0  0  0  0  0
  1  2  1  0
  2  3  1  0
  3  4  1  0
  3  5  1  0
  5  6  1  0
  6  7  2  0
  6  8  1  0
  8  9  1  0
  9 10  2  0
 10 11  1  0
 11 12  1  0
 12 13  2  0
 13 14  1  0
 14 15  2  0
 15 16  1  0
 16 17  1  0
 16 18  2  0
  3 19  1  0
 19 20  2  0
 20 21  1  0
 21 22  2  0
 22 23  1  0
 18  9  1  0
 23 19  1  0
 18 12  1  0
  1 24  1  0
  1 25  1  0
  1 26  1  0
  2 27  1  0
  2 28  1  0
  4 29  1  0
  4 30  1  0
  4 31  1  0
  5 32  1  0
  8 33  1  0
  8 34  1  0
 10 35  1  0
 11 36  1  0
 13 37  1  0
 14 38  1  0
 15 39  1  0
 17 40  1  0
 17 41  1  0
 17 42  1  0
 21 43  1  0
 22 44  1  0
M  END
>  <Energy>  (85) 
71.992283235522706

>  <compound_id>  (85) 
42691

>  <target_id>  (85) 
1

>  <reference_id>  (85) 
40

>  <inspiration_ids>  (85) 
[40, 48]

>  <energy_score>  (85) 
-34.63675733996973

>  <distance_score>  (85) 
14.980306806955026

>  <path>  (85) 
/opt/xchem-fragalysis-2/maxwin/BulkDock/SCRATCH/511021/C42691-P40/C42691-P40.minimised.mol

>  <scratch_subdir>  (85) 
/opt/xchem-fragalysis-2/maxwin/BulkDock/SCRATCH/511021/C42691-P40

>  <fragmenstein_runtime>  (85) 
18.648266553878784

>  <fragmenstein_outcome>  (85) 
too moved

>  <fragmenstein_mode>  (85) 
expansion

>  <fragmenstein_error>  (85) 


$$$$
C42691-P48
     RDKit          3D

 44 46  0  0  0  0  0  0  0  0999 V2000
   -7.8907  -21.7781   13.3715 C   0  0  0  0  0  0  0  0  0  0  0  0
   -7.5841  -21.5274   15.0722 C   0  0  0  0  0  0  0  0  0  0  0  0
   -8.0291  -20.4639   16.7482 C   0  0  0  0  0  0  0  0  0  0  0  0
   -6.4794  -21.5550   16.9384 C   0  0  0  0  0  0  0  0  0  0  0  0
   -7.6214  -19.7240   18.5965 N   0  0  0  0  0  0  0  0  0  0  0  0
   -6.1411  -18.6396   19.3059 C   0  0  0  0  0  0  0  0  0  0  0  0
   -5.2273  -18.4059   18.5519 O   0  0  0  0  0  0  0  0  0  0  0  0
   -5.8312  -17.5807   21.1672 C   0  0  0  0  0  0  0  0  0  0  0  0
   -4.5996  -16.2024   22.2811 C   0  0  0  0  0  0  0  0  0  0  0  0
   -3.7901  -15.3654   23.6100 C   0  0  0  0  0  0  0  0  0  0  0  0
   -3.3399  -15.5977   24.9251 N   0  0  0  0  0  0  0  0  0  0  0  0
   -4.2667  -14.7151   25.2173 C   0  0  0  0  0  0  0  0  0  0  0  0
   -4.3922  -13.9320   26.3643 C   0  0  0  0  0  0  0  0  0  0  0  0
   -5.3899  -13.0160   26.3457 C   0  0  0  0  0  0  0  0  0  0  0  0
   -6.1286  -12.8437   25.1824 C   0  0  0  0  0  0  0  0  0  0  0  0
   -6.3562  -14.0148   24.4186 C   0  0  0  0  0  0  0  0  0  0  0  0
   -7.6447  -14.4447   25.3940 C   0  0  0  0  0  0  0  0  0  0  0  0
   -5.1058  -14.9613   23.8955 C   0  0  0  0  0  0  0  0  0  0  0  0
   -9.4839  -21.4485   15.8748 C   0  0  0  0  0  0  0  0  0  0  0  0
  -10.1311  -21.0029   14.7958 N   0  0  0  0  0  0  0  0  0  0  0  0
  -10.6108  -21.8331   13.7298 C   0  0  0  0  0  0  0  0  0  0  0  0
  -10.5247  -23.1703   13.9207 C   0  0  0  0  0  0  0  0  0  0  0  0
   -9.6532  -23.4474   15.3412 S   0  0  0  0  0  0  0  0  0  0  0  0
   -8.3421  -22.7240   13.1049 H   0  0  0  0  0  0  0  0  0  0  0  0
   -8.4166  -21.0391   12.7660 H   0  0  0  0  0  0  0  0  0  0  0  0
   -6.9139  -21.8370   12.8697 H   0  0  0  0  0  0  0  0  0  0  0  0
   -7.4452  -22.5517   15.3431 H   0  0  0  0  0  0  0  0  0  0  0  0
   -6.7214  -21.0877   14.6612 H   0  0  0  0  0  0  0  0  0  0  0  0
   -6.3132  -22.6355   16.8383 H   0  0  0  0  0  0  0  0  0  0  0  0
   -6.7317  -21.3493   17.9199 H   0  0  0  0  0  0  0  0  0  0  0  0
   -5.5193  -21.1644   16.8286 H   0  0  0  0  0  0  0  0  0  0  0  0
   -8.2901  -19.9187   19.3695 H   0  0  0  0  0  0  0  0  0  0  0  0
   -6.7612  -16.9997   21.0637 H   0  0  0  0  0  0  0  0  0  0  0  0
   -6.0861  -18.3103   21.9451 H   0  0  0  0  0  0  0  0  0  0  0  0
   -2.9988  -14.6966   23.4370 H   0  0  0  0  0  0  0  0  0  0  0  0
   -2.3950  -15.5304   25.2797 H   0  0  0  0  0  0  0  0  0  0  0  0
   -3.7148  -14.0266   27.2036 H   0  0  0  0  0  0  0  0  0  0  0  0
   -5.5688  -12.3966   27.2193 H   0  0  0  0  0  0  0  0  0  0  0  0
   -6.9141  -12.0825   25.2114 H   0  0  0  0  0  0  0  0  0  0  0  0
   -7.3828  -14.3936   26.4620 H   0  0  0  0  0  0  0  0  0  0  0  0
   -8.4671  -13.7347   25.2505 H   0  0  0  0  0  0  0  0  0  0  0  0
   -8.0078  -15.4491   25.3078 H   0  0  0  0  0  0  0  0  0  0  0  0
  -11.0584  -21.3400   12.8858 H   0  0  0  0  0  0  0  0  0  0  0  0
  -10.8673  -23.9712   13.2839 H   0  0  0  0  0  0  0  0  0  0  0  0
  1  2  1  0
  2  3  1  0
  3  4  1  0
  3  5  1  0
  5  6  1  0
  6  7  2  0
  6  8  1  0
  8  9  1  0
  9 10  2  0
 10 11  1  0
 11 12  1  0
 12 13  2  0
 13 14  1  0
 14 15  2  0
 15 16  1  0
 16 17  1  0
 16 18  2  0
  3 19  1  0
 19 20  2  0
 20 21  1  0
 21 22  2  0
 22 23  1  0
 18  9  1  0
 23 19  1  0
 18 12  1  0
  1 24  1  0
  1 25  1  0
  1 26  1  0
  2 27  1  0
  2 28  1  0
  4 29  1  0
  4 30  1  0
  4 31  1  0
  5 32  1  0
  8 33  1  0
  8 34  1  0
 10 35  1  0
 11 36  1  0
 13 37  1  0
 14 38  1  0
 15 39  1  0
 17 40  1  0
 17 41  1  0
 17 42  1  0
 21 43  1  0
 22 44  1  0
M  END
>  <Energy>  (86) 
1537.1041575046479

>  <compound_id>  (86) 
42691

>  <target_id>  (86) 
1

>  <reference_id>  (86) 
48

>  <inspiration_ids>  (86) 
[40, 48]

>  <energy_score>  (86) 
1430.4751169291596

>  <distance_score>  (86) 
10.306072287523769

>  <path>  (86) 
/opt/xchem-fragalysis-2/maxwin/BulkDock/SCRATCH/511021/C42691-P48/C42691-P48.minimised.mol

>  <scratch_subdir>  (86) 
/opt/xchem-fragalysis-2/maxwin/BulkDock/SCRATCH/511021/C42691-P48

>  <fragmenstein_runtime>  (86) 
16.081378698349

>  <fragmenstein_outcome>  (86) 
too moved

>  <fragmenstein_mode>  (86) 
expansion

>  <fragmenstein_error>  (86) 


$$$$
C42692-P40
     RDKit          3D

 44 46  0  0  0  0  0  0  0  0999 V2000
   -5.5166  -21.0994   16.8606 C   0  0  0  0  0  0  0  0  0  0  0  0
   -4.6493  -19.3628   17.6932 C   0  0  0  0  0  0  0  0  0  0  0  0
   -4.4882  -17.5646   18.5960 C   0  0  0  0  0  0  0  0  0  0  0  0
   -4.9246  -17.8481   20.1318 C   0  0  0  0  0  0  0  0  0  0  0  0
   -3.0720  -16.0219   18.7245 N   0  0  0  0  0  0  0  0  0  0  0  0
   -2.3788  -15.0352   20.1895 C   0  0  0  0  0  0  0  0  0  0  0  0
   -2.7624  -15.4863   21.1027 O   0  0  0  0  0  0  0  0  0  0  0  0
   -1.3192  -13.1851   20.7460 C   0  0  0  0  0  0  0  0  0  0  0  0
   -0.4811  -12.0156   22.3786 C   0  0  0  0  0  0  0  0  0  0  0  0
    0.9024  -11.4902   22.4795 C   0  0  0  0  0  0  0  0  0  0  0  0
    1.7052  -10.6093   21.5796 C   0  0  0  0  0  0  0  0  0  0  0  0
    1.5222  -11.7747   23.7107 N   0  0  0  0  0  0  0  0  0  0  0  0
    0.9912  -10.8535   24.6316 C   0  0  0  0  0  0  0  0  0  0  0  0
    1.7243   -9.5366   25.8058 C   0  0  0  0  0  0  0  0  0  0  0  0
    1.1355   -8.5102   27.2844 C   0  0  0  0  0  0  0  0  0  0  0  0
   -0.8417   -8.4667   27.0253 C   0  0  0  0  0  0  0  0  0  0  0  0
   -1.7688   -9.9685   25.6225 C   0  0  0  0  0  0  0  0  0  0  0  0
   -0.8211  -10.7978   23.9208 C   0  0  0  0  0  0  0  0  0  0  0  0
   -6.4419  -17.7705   18.3814 C   0  0  0  0  0  0  0  0  0  0  0  0
   -6.9026  -19.0646   18.4725 N   0  0  0  0  0  0  0  0  0  0  0  0
   -8.2127  -19.4608   17.6361 C   0  0  0  0  0  0  0  0  0  0  0  0
   -8.8089  -18.4416   16.9446 C   0  0  0  0  0  0  0  0  0  0  0  0
   -7.9704  -17.0009   17.0239 S   0  0  0  0  0  0  0  0  0  0  0  0
   -6.1287  -21.4193   15.9544 H   0  0  0  0  0  0  0  0  0  0  0  0
   -4.9311  -22.0657   16.7027 H   0  0  0  0  0  0  0  0  0  0  0  0
   -6.4446  -21.2474   17.4414 H   0  0  0  0  0  0  0  0  0  0  0  0
   -4.6900  -19.7359   18.6843 H   0  0  0  0  0  0  0  0  0  0  0  0
   -3.9203  -18.8860   17.0619 H   0  0  0  0  0  0  0  0  0  0  0  0
   -4.8553  -18.9165   20.3449 H   0  0  0  0  0  0  0  0  0  0  0  0
   -4.3825  -17.1252   20.7414 H   0  0  0  0  0  0  0  0  0  0  0  0
   -5.9598  -17.6395   20.4508 H   0  0  0  0  0  0  0  0  0  0  0  0
   -2.6489  -15.6605   17.8859 H   0  0  0  0  0  0  0  0  0  0  0  0
   -2.2582  -12.7472   20.4809 H   0  0  0  0  0  0  0  0  0  0  0  0
   -0.6351  -13.9030   21.6596 H   0  0  0  0  0  0  0  0  0  0  0  0
    2.5258  -11.1990   21.1766 H   0  0  0  0  0  0  0  0  0  0  0  0
    1.1210  -10.1359   20.7862 H   0  0  0  0  0  0  0  0  0  0  0  0
    2.1256   -9.7895   22.1529 H   0  0  0  0  0  0  0  0  0  0  0  0
    2.5196  -11.8858   23.7663 H   0  0  0  0  0  0  0  0  0  0  0  0
    2.7856   -9.3964   25.5349 H   0  0  0  0  0  0  0  0  0  0  0  0
    1.6810   -7.7457   27.8342 H   0  0  0  0  0  0  0  0  0  0  0  0
   -1.2653   -7.8468   27.8862 H   0  0  0  0  0  0  0  0  0  0  0  0
   -2.7608   -9.9396   25.1604 H   0  0  0  0  0  0  0  0  0  0  0  0
   -8.6034  -20.4376   17.8286 H   0  0  0  0  0  0  0  0  0  0  0  0
   -9.6895  -18.4327   16.3296 H   0  0  0  0  0  0  0  0  0  0  0  0
  1  2  1  0
  2  3  1  0
  3  4  1  0
  3  5  1  0
  5  6  1  0
  6  7  2  0
  6  8  1  0
  8  9  1  0
  9 10  2  0
 10 11  1  0
 10 12  1  0
 12 13  1  0
 13 14  2  0
 14 15  1  0
 15 16  2  0
 16 17  1  0
 17 18  2  0
  3 19  1  0
 19 20  2  0
 20 21  1  0
 21 22  2  0
 22 23  1  0
 18  9  1  0
 23 19  1  0
 18 13  1  0
  1 24  1  0
  1 25  1  0
  1 26  1  0
  2 27  1  0
  2 28  1  0
  4 29  1  0
  4 30  1  0
  4 31  1  0
  5 32  1  0
  8 33  1  0
  8 34  1  0
 11 35  1  0
 11 36  1  0
 11 37  1  0
 12 38  1  0
 14 39  1  0
 15 40  1  0
 16 41  1  0
 17 42  1  0
 21 43  1  0
 22 44  1  0
M  END
>  <Energy>  (87) 
2184.174433453979

>  <compound_id>  (87) 
42692

>  <target_id>  (87) 
1

>  <reference_id>  (87) 
40

>  <inspiration_ids>  (87) 
[40, 48]

>  <energy_score>  (87) 
2036.0209180729353

>  <distance_score>  (87) 
10.861528829616583

>  <path>  (87) 
/opt/xchem-fragalysis-2/maxwin/BulkDock/SCRATCH/511021/C42692-P40/C42692-P40.minimised.mol

>  <scratch_subdir>  (87) 
/opt/xchem-fragalysis-2/maxwin/BulkDock/SCRATCH/511021/C42692-P40

>  <fragmenstein_runtime>  (87) 
12.553074598312378

>  <fragmenstein_outcome>  (87) 
too moved

>  <fragmenstein_mode>  (87) 
expansion

>  <fragmenstein_error>  (87) 


$$$$
C42692-P48
     RDKit          3D

 44 46  0  0  0  0  0  0  0  0999 V2000
   -1.9872  -15.4970   19.2942 C   0  0  0  0  0  0  0  0  0  0  0  0
   -2.4759  -15.7473   20.8234 C   0  0  0  0  0  0  0  0  0  0  0  0
   -3.9911  -16.3318   22.1270 C   0  0  0  0  0  0  0  0  0  0  0  0
   -3.9246  -17.1541   20.4342 C   0  0  0  0  0  0  0  0  0  0  0  0
   -3.8868  -14.8863   23.6991 N   0  0  0  0  0  0  0  0  0  0  0  0
   -2.4077  -14.2772   24.9684 C   0  0  0  0  0  0  0  0  0  0  0  0
   -1.3117  -14.8392   24.9819 O   0  0  0  0  0  0  0  0  0  0  0  0
   -2.3833  -12.5159   26.3586 C   0  0  0  0  0  0  0  0  0  0  0  0
   -1.7018  -11.0033   27.8209 C   0  0  0  0  0  0  0  0  0  0  0  0
   -0.4313  -10.0097   28.5883 C   0  0  0  0  0  0  0  0  0  0  0  0
    1.0151   -8.9815   28.8071 C   0  0  0  0  0  0  0  0  0  0  0  0
   -1.0446  -10.4846   30.1467 N   0  0  0  0  0  0  0  0  0  0  0  0
   -1.0122   -9.2513   30.4404 C   0  0  0  0  0  0  0  0  0  0  0  0
   -0.8328   -8.3982   31.5433 C   0  0  0  0  0  0  0  0  0  0  0  0
   -0.7370   -7.0771   31.2525 C   0  0  0  0  0  0  0  0  0  0  0  0
   -1.0759   -6.7455   29.9758 C   0  0  0  0  0  0  0  0  0  0  0  0
   -1.5693   -7.7293   29.0063 C   0  0  0  0  0  0  0  0  0  0  0  0
   -1.2652   -9.3485   28.9576 C   0  0  0  0  0  0  0  0  0  0  0  0
   -5.5910  -17.3903   21.7623 C   0  0  0  0  0  0  0  0  0  0  0  0
   -6.3215  -17.4929   20.6321 N   0  0  0  0  0  0  0  0  0  0  0  0
   -6.6837  -18.7738   20.5609 C   0  0  0  0  0  0  0  0  0  0  0  0
   -7.2649  -19.0707   21.7388 C   0  0  0  0  0  0  0  0  0  0  0  0
   -6.5942  -18.2248   22.9529 S   0  0  0  0  0  0  0  0  0  0  0  0
   -2.0125  -14.5206   18.7881 H   0  0  0  0  0  0  0  0  0  0  0  0
   -0.9503  -15.6011   19.1320 H   0  0  0  0  0  0  0  0  0  0  0  0
   -2.4106  -16.1732   18.5996 H   0  0  0  0  0  0  0  0  0  0  0  0
   -1.6483  -16.4236   21.0544 H   0  0  0  0  0  0  0  0  0  0  0  0
   -2.1274  -14.7808   21.1969 H   0  0  0  0  0  0  0  0  0  0  0  0
   -3.6341  -16.5539   19.6389 H   0  0  0  0  0  0  0  0  0  0  0  0
   -4.7082  -17.3952   19.6032 H   0  0  0  0  0  0  0  0  0  0  0  0
   -4.1539  -18.2546   20.2735 H   0  0  0  0  0  0  0  0  0  0  0  0
   -4.6739  -14.2578   23.7733 H   0  0  0  0  0  0  0  0  0  0  0  0
   -2.9543  -13.0145   27.1653 H   0  0  0  0  0  0  0  0  0  0  0  0
   -3.0847  -11.8631   25.8260 H   0  0  0  0  0  0  0  0  0  0  0  0
    1.6543   -8.5970   28.0286 H   0  0  0  0  0  0  0  0  0  0  0  0
    0.8076   -8.1000   29.4057 H   0  0  0  0  0  0  0  0  0  0  0  0
    1.6579   -9.3828   29.5520 H   0  0  0  0  0  0  0  0  0  0  0  0
   -0.3973  -10.9804   30.7281 H   0  0  0  0  0  0  0  0  0  0  0  0
   -0.6907   -8.7676   32.5495 H   0  0  0  0  0  0  0  0  0  0  0  0
   -0.4662   -6.3358   31.9939 H   0  0  0  0  0  0  0  0  0  0  0  0
   -0.9704   -5.7004   29.6814 H   0  0  0  0  0  0  0  0  0  0  0  0
   -2.1827   -7.3213   28.1981 H   0  0  0  0  0  0  0  0  0  0  0  0
   -6.6592  -19.2956   19.6203 H   0  0  0  0  0  0  0  0  0  0  0  0
   -7.8594  -19.8569   22.1368 H   0  0  0  0  0  0  0  0  0  0  0  0
  1  2  1  0
  2  3  1  0
  3  4  1  0
  3  5  1  0
  5  6  1  0
  6  7  2  0
  6  8  1  0
  8  9  1  0
  9 10  2  0
 10 11  1  0
 10 12  1  0
 12 13  1  0
 13 14  2  0
 14 15  1  0
 15 16  2  0
 16 17  1  0
 17 18  2  0
  3 19  1  0
 19 20  2  0
 20 21  1  0
 21 22  2  0
 22 23  1  0
 18  9  1  0
 23 19  1  0
 18 13  1  0
  1 24  1  0
  1 25  1  0
  1 26  1  0
  2 27  1  0
  2 28  1  0
  4 29  1  0
  4 30  1  0
  4 31  1  0
  5 32  1  0
  8 33  1  0
  8 34  1  0
 11 35  1  0
 11 36  1  0
 11 37  1  0
 12 38  1  0
 14 39  1  0
 15 40  1  0
 16 41  1  0
 17 42  1  0
 21 43  1  0
 22 44  1  0
M  END
>  <Energy>  (88) 
1858.0985588905605

>  <compound_id>  (88) 
42692

>  <target_id>  (88) 
1

>  <reference_id>  (88) 
48

>  <inspiration_ids>  (88) 
[40, 48]

>  <energy_score>  (88) 
1709.945043509509

>  <distance_score>  (88) 
12.784113160013352

>  <path>  (88) 
/opt/xchem-fragalysis-2/maxwin/BulkDock/SCRATCH/511021/C42692-P48/C42692-P48.minimised.mol

>  <scratch_subdir>  (88) 
/opt/xchem-fragalysis-2/maxwin/BulkDock/SCRATCH/511021/C42692-P48

>  <fragmenstein_runtime>  (88) 
12.87256383895874

>  <fragmenstein_outcome>  (88) 
too moved

>  <fragmenstein_mode>  (88) 
expansion

>  <fragmenstein_error>  (88) 


$$$$
C48223-P40
     RDKit          3D

 42 44  0  0  0  0  0  0  0  0999 V2000
   -5.3432  -14.3488   24.2449 C   0  0  0  0  0  0  0  0  0  0  0  0
   -4.1019  -14.9670   23.5766 C   0  0  0  0  0  0  0  0  0  0  0  0
   -4.2838  -16.2163   21.8972 C   0  0  0  0  0  0  0  0  0  0  0  0
   -5.5811  -17.1421   20.8959 N   0  0  0  0  0  0  0  0  0  0  0  0
   -5.5730  -17.6230   19.3257 C   0  0  0  0  0  0  0  0  0  0  0  0
   -4.6875  -17.5615   18.5045 O   0  0  0  0  0  0  0  0  0  0  0  0
   -6.8303  -18.1149   18.6773 C   0  0  0  0  0  0  0  0  0  0  0  0
   -6.7937  -19.4119   18.7570 C   0  0  0  0  0  0  0  0  0  0  0  0
   -7.8076  -20.1687   18.0380 C   0  0  0  0  0  0  0  0  0  0  0  0
   -9.0509  -19.9076   17.6034 N   0  0  0  0  0  0  0  0  0  0  0  0
   -9.2419  -18.5604   17.3124 C   0  0  0  0  0  0  0  0  0  0  0  0
   -7.8985  -17.6575   17.6053 C   0  0  0  0  0  0  0  0  0  0  0  0
   -3.0915  -13.5784   24.4026 N   0  0  0  0  0  0  0  0  0  0  0  0
   -3.3034  -12.7728   25.9282 C   0  0  0  0  0  0  0  0  0  0  0  0
   -4.1256  -13.0559   26.7671 O   0  0  0  0  0  0  0  0  0  0  0  0
   -2.3896  -11.2394   26.4447 C   0  0  0  0  0  0  0  0  0  0  0  0
   -2.6390   -9.6917   25.7373 C   0  0  0  0  0  0  0  0  0  0  0  0
   -2.6403   -7.9394   26.7242 C   0  0  0  0  0  0  0  0  0  0  0  0
   -1.5416   -7.8239   28.2545 C   0  0  0  0  0  0  0  0  0  0  0  0
   -1.2037   -7.0828   29.3851 N   0  0  0  0  0  0  0  0  0  0  0  0
    0.0464   -7.4954   29.7949 C   0  0  0  0  0  0  0  0  0  0  0  0
    0.3047   -8.6367   29.0784 C   0  0  0  0  0  0  0  0  0  0  0  0
   -0.8879   -9.3366   28.8214 C   0  0  0  0  0  0  0  0  0  0  0  0
   -1.5616  -10.8330   27.9792 C   0  0  0  0  0  0  0  0  0  0  0  0
   -6.3117  -14.7566   24.0677 H   0  0  0  0  0  0  0  0  0  0  0  0
   -5.2465  -14.4146   25.3292 H   0  0  0  0  0  0  0  0  0  0  0  0
   -5.4140  -13.2809   24.0291 H   0  0  0  0  0  0  0  0  0  0  0  0
   -3.6039  -15.5804   24.3101 H   0  0  0  0  0  0  0  0  0  0  0  0
   -4.2072  -17.0870   22.3321 H   0  0  0  0  0  0  0  0  0  0  0  0
   -3.5116  -16.2914   21.0979 H   0  0  0  0  0  0  0  0  0  0  0  0
   -6.5116  -17.2604   21.2838 H   0  0  0  0  0  0  0  0  0  0  0  0
   -5.8694  -19.8331   19.1357 H   0  0  0  0  0  0  0  0  0  0  0  0
   -7.4083  -21.0780   17.6551 H   0  0  0  0  0  0  0  0  0  0  0  0
   -9.9029  -18.5319   16.4347 H   0  0  0  0  0  0  0  0  0  0  0  0
   -7.8668  -16.7462   17.0299 H   0  0  0  0  0  0  0  0  0  0  0  0
   -2.2805  -13.1939   23.9341 H   0  0  0  0  0  0  0  0  0  0  0  0
   -3.1765   -9.7665   24.7505 H   0  0  0  0  0  0  0  0  0  0  0  0
   -3.6231   -7.5009   26.9436 H   0  0  0  0  0  0  0  0  0  0  0  0
   -1.3728   -6.1097   29.4788 H   0  0  0  0  0  0  0  0  0  0  0  0
    0.6993   -6.7426   30.2182 H   0  0  0  0  0  0  0  0  0  0  0  0
    1.1271   -8.6142   28.4043 H   0  0  0  0  0  0  0  0  0  0  0  0
   -2.1881  -11.4029   28.7506 H   0  0  0  0  0  0  0  0  0  0  0  0
  1  2  1  0
  2  3  1  0
  3  4  1  0
  4  5  1  0
  5  6  2  0
  5  7  1  0
  7  8  2  0
  8  9  1  0
  9 10  2  0
 10 11  1  0
 11 12  2  0
  2 13  1  0
 13 14  1  0
 14 15  2  0
 14 16  1  0
 16 17  2  0
 17 18  1  0
 18 19  2  0
 19 20  1  0
 20 21  1  0
 21 22  2  0
 22 23  1  0
 23 24  2  0
 12  7  1  0
 24 16  1  0
 23 19  1  0
  1 25  1  0
  1 26  1  0
  1 27  1  0
  2 28  1  0
  3 29  1  0
  3 30  1  0
  4 31  1  0
  8 32  1  0
  9 33  1  0
 11 34  1  0
 12 35  1  0
 13 36  1  0
 17 37  1  0
 18 38  1  0
 20 39  1  0
 21 40  1  0
 22 41  1  0
 24 42  1  0
M  END
>  <Energy>  (89) 
921.27797955396193

>  <compound_id>  (89) 
48223

>  <target_id>  (89) 
1

>  <reference_id>  (89) 
40

>  <inspiration_ids>  (89) 
[40, 48]

>  <energy_score>  (89) 
874.0792445085683

>  <distance_score>  (89) 
9.280985015827955

>  <path>  (89) 
/opt/xchem-fragalysis-2/maxwin/BulkDock/SCRATCH/511021/C48223-P40/C48223-P40.minimised.mol

>  <scratch_subdir>  (89) 
/opt/xchem-fragalysis-2/maxwin/BulkDock/SCRATCH/511021/C48223-P40

>  <fragmenstein_runtime>  (89) 
16.018954038619995

>  <fragmenstein_outcome>  (89) 
too moved

>  <fragmenstein_mode>  (89) 
expansion

>  <fragmenstein_error>  (89) 


$$$$
C48223-P48
     RDKit          3D

 42 44  0  0  0  0  0  0  0  0999 V2000
   -6.6576  -17.2129   23.6376 C   0  0  0  0  0  0  0  0  0  0  0  0
   -5.0279  -15.8287   23.6840 C   0  0  0  0  0  0  0  0  0  0  0  0
   -4.9310  -16.9390   21.9120 C   0  0  0  0  0  0  0  0  0  0  0  0
   -6.0672  -18.2316   21.0483 N   0  0  0  0  0  0  0  0  0  0  0  0
   -6.1924  -18.7077   19.4084 C   0  0  0  0  0  0  0  0  0  0  0  0
   -5.4660  -18.3110   18.5631 O   0  0  0  0  0  0  0  0  0  0  0  0
   -7.5286  -19.7666   18.6365 C   0  0  0  0  0  0  0  0  0  0  0  0
   -8.3812  -19.8002   17.6548 C   0  0  0  0  0  0  0  0  0  0  0  0
   -9.6477  -20.0570   16.3004 C   0  0  0  0  0  0  0  0  0  0  0  0
   -9.8112  -21.1445   15.6911 N   0  0  0  0  0  0  0  0  0  0  0  0
   -9.4015  -21.5583   16.8380 C   0  0  0  0  0  0  0  0  0  0  0  0
   -8.7163  -20.7673   18.4089 C   0  0  0  0  0  0  0  0  0  0  0  0
   -4.1807  -15.0895   24.9247 N   0  0  0  0  0  0  0  0  0  0  0  0
   -4.5914  -13.9699   25.8821 C   0  0  0  0  0  0  0  0  0  0  0  0
   -5.6502  -13.4135   26.0186 O   0  0  0  0  0  0  0  0  0  0  0  0
   -3.5439  -13.4148   26.9628 C   0  0  0  0  0  0  0  0  0  0  0  0
   -3.7832  -13.7119   28.2953 C   0  0  0  0  0  0  0  0  0  0  0  0
   -3.2939  -12.9354   29.4205 C   0  0  0  0  0  0  0  0  0  0  0  0
   -2.4717  -11.7114   29.3614 C   0  0  0  0  0  0  0  0  0  0  0  0
   -1.6528  -10.7363   30.3324 N   0  0  0  0  0  0  0  0  0  0  0  0
   -0.9160   -9.7100   29.8222 C   0  0  0  0  0  0  0  0  0  0  0  0
   -0.9649  -10.0008   28.5072 C   0  0  0  0  0  0  0  0  0  0  0  0
   -2.1658  -11.2831   28.0958 C   0  0  0  0  0  0  0  0  0  0  0  0
   -2.8182  -12.1908   26.8765 C   0  0  0  0  0  0  0  0  0  0  0  0
   -7.4622  -16.5632   23.8751 H   0  0  0  0  0  0  0  0  0  0  0  0
   -6.5446  -18.2586   23.9591 H   0  0  0  0  0  0  0  0  0  0  0  0
   -7.1418  -17.4442   22.6732 H   0  0  0  0  0  0  0  0  0  0  0  0
   -5.4502  -14.7769   23.6805 H   0  0  0  0  0  0  0  0  0  0  0  0
   -5.7310  -16.5628   21.3282 H   0  0  0  0  0  0  0  0  0  0  0  0
   -4.0274  -16.6915   21.3345 H   0  0  0  0  0  0  0  0  0  0  0  0
   -6.8387  -18.6316   21.5607 H   0  0  0  0  0  0  0  0  0  0  0  0
   -7.4878  -20.7739   17.2491 H   0  0  0  0  0  0  0  0  0  0  0  0
  -10.0558  -19.1118   15.8639 H   0  0  0  0  0  0  0  0  0  0  0  0
   -9.7031  -22.5904   16.6598 H   0  0  0  0  0  0  0  0  0  0  0  0
   -9.1010  -21.1377   19.3877 H   0  0  0  0  0  0  0  0  0  0  0  0
   -3.1921  -15.2631   25.0201 H   0  0  0  0  0  0  0  0  0  0  0  0
   -4.4434  -14.5489   28.5244 H   0  0  0  0  0  0  0  0  0  0  0  0
   -3.5226  -13.4250   30.3608 H   0  0  0  0  0  0  0  0  0  0  0  0
   -1.5862  -10.8118   31.3292 H   0  0  0  0  0  0  0  0  0  0  0  0
   -0.4282   -8.9509   30.4199 H   0  0  0  0  0  0  0  0  0  0  0  0
   -0.4516   -9.3224   27.8803 H   0  0  0  0  0  0  0  0  0  0  0  0
   -2.8035  -11.7842   25.8665 H   0  0  0  0  0  0  0  0  0  0  0  0
  1  2  1  0
  2  3  1  0
  3  4  1  0
  4  5  1  0
  5  6  2  0
  5  7  1  0
  7  8  2  0
  8  9  1  0
  9 10  2  0
 10 11  1  0
 11 12  2  0
  2 13  1  0
 13 14  1  0
 14 15  2  0
 14 16  1  0
 16 17  2  0
 17 18  1  0
 18 19  2  0
 19 20  1  0
 20 21  1  0
 21 22  2  0
 22 23  1  0
 23 24  2  0
 12  7  1  0
 24 16  1  0
 23 19  1  0
  1 25  1  0
  1 26  1  0
  1 27  1  0
  2 28  1  0
  3 29  1  0
  3 30  1  0
  4 31  1  0
  8 32  1  0
  9 33  1  0
 11 34  1  0
 12 35  1  0
 13 36  1  0
 17 37  1  0
 18 38  1  0
 20 39  1  0
 21 40  1  0
 22 41  1  0
 24 42  1  0
M  END
>  <Energy>  (90) 
1105.0482330945742

>  <compound_id>  (90) 
48223

>  <target_id>  (90) 
1

>  <reference_id>  (90) 
48

>  <inspiration_ids>  (90) 
[40, 48]

>  <energy_score>  (90) 
1057.8494980491903

>  <distance_score>  (90) 
9.504590927437127

>  <path>  (90) 
/opt/xchem-fragalysis-2/maxwin/BulkDock/SCRATCH/511021/C48223-P48/C48223-P48.minimised.mol

>  <scratch_subdir>  (90) 
/opt/xchem-fragalysis-2/maxwin/BulkDock/SCRATCH/511021/C48223-P48

>  <fragmenstein_runtime>  (90) 
14.897770166397095

>  <fragmenstein_outcome>  (90) 
too moved

>  <fragmenstein_mode>  (90) 
expansion

>  <fragmenstein_error>  (90) 


$$$$
C8333-P40
     RDKit          3D

 42 44  0  0  0  0  0  0  0  0999 V2000
   -6.0969  -17.9567   22.2580 C   0  0  0  0  0  0  0  0  0  0  0  0
   -4.8979  -16.8771   21.6635 C   0  0  0  0  0  0  0  0  0  0  0  0
   -5.0762  -17.7307   20.0046 C   0  0  0  0  0  0  0  0  0  0  0  0
   -5.9138  -18.5296   19.0941 N   0  0  0  0  0  0  0  0  0  0  0  0
   -7.0848  -19.2668   19.3265 C   0  0  0  0  0  0  0  0  0  0  0  0
   -7.6554  -19.5003   20.3378 O   0  0  0  0  0  0  0  0  0  0  0  0
   -8.0603  -19.9244   17.8819 C   0  0  0  0  0  0  0  0  0  0  0  0
   -8.6816  -21.0216   17.6049 C   0  0  0  0  0  0  0  0  0  0  0  0
   -9.3376  -21.7569   16.1440 C   0  0  0  0  0  0  0  0  0  0  0  0
   -9.7005  -21.0293   15.1064 C   0  0  0  0  0  0  0  0  0  0  0  0
   -9.7725  -19.8084   15.8089 C   0  0  0  0  0  0  0  0  0  0  0  0
   -9.2366  -19.4011   17.3771 N   0  0  0  0  0  0  0  0  0  0  0  0
   -4.1582  -15.4820   22.8682 N   0  0  0  0  0  0  0  0  0  0  0  0
   -4.8189  -14.0031   23.4440 C   0  0  0  0  0  0  0  0  0  0  0  0
   -5.9248  -13.5374   23.3023 O   0  0  0  0  0  0  0  0  0  0  0  0
   -3.6904  -12.7304   24.3423 C   0  0  0  0  0  0  0  0  0  0  0  0
   -4.0494  -11.5153   24.6331 C   0  0  0  0  0  0  0  0  0  0  0  0
   -3.0402  -11.3777   25.4880 C   0  0  0  0  0  0  0  0  0  0  0  0
   -2.9213  -12.2098   26.7416 C   0  0  0  0  0  0  0  0  0  0  0  0
   -3.5113  -12.3513   28.0067 N   0  0  0  0  0  0  0  0  0  0  0  0
   -3.0514  -13.4463   28.7107 C   0  0  0  0  0  0  0  0  0  0  0  0
   -2.4616  -14.2835   27.7588 C   0  0  0  0  0  0  0  0  0  0  0  0
   -2.4738  -13.4840   26.4940 C   0  0  0  0  0  0  0  0  0  0  0  0
   -2.3060  -13.4957   25.1508 C   0  0  0  0  0  0  0  0  0  0  0  0
   -6.1718  -18.1335   23.3207 H   0  0  0  0  0  0  0  0  0  0  0  0
   -7.1045  -17.6184   21.9663 H   0  0  0  0  0  0  0  0  0  0  0  0
   -6.0441  -18.9022   21.7421 H   0  0  0  0  0  0  0  0  0  0  0  0
   -3.8622  -16.8544   21.3335 H   0  0  0  0  0  0  0  0  0  0  0  0
   -6.0741  -17.2604   20.0916 H   0  0  0  0  0  0  0  0  0  0  0  0
   -4.3830  -17.2831   19.3030 H   0  0  0  0  0  0  0  0  0  0  0  0
   -5.6718  -18.6057   18.1347 H   0  0  0  0  0  0  0  0  0  0  0  0
   -9.0079  -21.3757   18.5656 H   0  0  0  0  0  0  0  0  0  0  0  0
   -9.4135  -22.8259   15.9734 H   0  0  0  0  0  0  0  0  0  0  0  0
  -10.0263  -21.3184   14.1267 H   0  0  0  0  0  0  0  0  0  0  0  0
  -10.2156  -18.8666   15.4480 H   0  0  0  0  0  0  0  0  0  0  0  0
   -3.2518  -15.6025   23.2248 H   0  0  0  0  0  0  0  0  0  0  0  0
   -4.6365  -10.8342   24.0584 H   0  0  0  0  0  0  0  0  0  0  0  0
   -2.5210  -10.4246   25.4207 H   0  0  0  0  0  0  0  0  0  0  0  0
   -4.3156  -11.8209   28.3101 H   0  0  0  0  0  0  0  0  0  0  0  0
   -3.3704  -13.6455   29.7222 H   0  0  0  0  0  0  0  0  0  0  0  0
   -2.1424  -15.3086   27.9103 H   0  0  0  0  0  0  0  0  0  0  0  0
   -2.1667  -14.3862   24.5585 H   0  0  0  0  0  0  0  0  0  0  0  0
  1  2  1  0
  2  3  1  0
  3  4  1  0
  4  5  1  0
  5  6  2  0
  5  7  1  0
  7  8  2  0
  8  9  1  0
  9 10  2  0
 10 11  1  0
 11 12  2  0
  2 13  1  0
 13 14  1  0
 14 15  2  0
 14 16  1  0
 16 17  2  0
 17 18  1  0
 18 19  2  0
 19 20  1  0
 20 21  1  0
 21 22  2  0
 22 23  1  0
 23 24  2  0
 12  7  1  0
 24 16  1  0
 23 19  1  0
  1 25  1  0
  1 26  1  0
  1 27  1  0
  2 28  1  0
  3 29  1  0
  3 30  1  0
  4 31  1  0
  8 32  1  0
  9 33  1  0
 10 34  1  0
 11 35  1  0
 13 36  1  0
 17 37  1  0
 18 38  1  0
 20 39  1  0
 21 40  1  0
 22 41  1  0
 24 42  1  0
M  END
>  <Energy>  (91) 
793.2461143969233

>  <compound_id>  (91) 
8333

>  <target_id>  (91) 
1

>  <reference_id>  (91) 
40

>  <inspiration_ids>  (91) 
[40, 48]

>  <energy_score>  (91) 
713.2927490205032

>  <distance_score>  (91) 
10.200778892795645

>  <path>  (91) 
/opt/xchem-fragalysis-2/maxwin/BulkDock/SCRATCH/511021/C8333-P40/C8333-P40.minimised.mol

>  <scratch_subdir>  (91) 
/opt/xchem-fragalysis-2/maxwin/BulkDock/SCRATCH/511021/C8333-P40

>  <fragmenstein_runtime>  (91) 
15.775493383407593

>  <fragmenstein_outcome>  (91) 
too moved

>  <fragmenstein_mode>  (91) 
expansion

>  <fragmenstein_error>  (91) 


$$$$
C8333-P48
     RDKit          3D

 42 44  0  0  0  0  0  0  0  0999 V2000
  -10.8001   -9.4220   16.7332 C   0  0  0  0  0  0  0  0  0  0  0  0
   -9.5275  -10.2182   16.4313 C   0  0  0  0  0  0  0  0  0  0  0  0
   -9.2342  -10.1977   14.8987 C   0  0  0  0  0  0  0  0  0  0  0  0
   -9.4694  -11.4749   14.1916 N   0  0  0  0  0  0  0  0  0  0  0  0
  -10.6908  -12.1600   13.8607 C   0  0  0  0  0  0  0  0  0  0  0  0
  -11.8281  -11.9102   14.1427 O   0  0  0  0  0  0  0  0  0  0  0  0
  -10.4552  -13.4143   12.9872 C   0  0  0  0  0  0  0  0  0  0  0  0
  -11.5356  -14.1238   12.4513 C   0  0  0  0  0  0  0  0  0  0  0  0
  -11.2938  -15.2251   11.6231 C   0  0  0  0  0  0  0  0  0  0  0  0
   -9.9836  -15.6106   11.3712 C   0  0  0  0  0  0  0  0  0  0  0  0
   -8.9698  -14.8799   11.9690 C   0  0  0  0  0  0  0  0  0  0  0  0
   -9.1657  -13.7894   12.7598 N   0  0  0  0  0  0  0  0  0  0  0  0
   -8.4549   -9.7662   17.3476 N   0  0  0  0  0  0  0  0  0  0  0  0
   -7.7254   -8.5272   17.4094 C   0  0  0  0  0  0  0  0  0  0  0  0
   -7.7427   -7.5740   16.6853 O   0  0  0  0  0  0  0  0  0  0  0  0
   -6.8594   -8.3648   18.6687 C   0  0  0  0  0  0  0  0  0  0  0  0
   -6.1945   -9.4075   19.3292 C   0  0  0  0  0  0  0  0  0  0  0  0
   -5.5189   -9.2088   20.5539 C   0  0  0  0  0  0  0  0  0  0  0  0
   -5.5246   -7.9233   21.1012 C   0  0  0  0  0  0  0  0  0  0  0  0
   -5.0446   -7.4569   22.2976 N   0  0  0  0  0  0  0  0  0  0  0  0
   -5.2514   -6.1059   22.3999 C   0  0  0  0  0  0  0  0  0  0  0  0
   -5.8878   -5.6932   21.2567 C   0  0  0  0  0  0  0  0  0  0  0  0
   -6.1050   -6.8411   20.4502 C   0  0  0  0  0  0  0  0  0  0  0  0
   -6.7692   -7.0687   19.2257 C   0  0  0  0  0  0  0  0  0  0  0  0
  -10.6708   -8.3611   16.4928 H   0  0  0  0  0  0  0  0  0  0  0  0
  -11.0575   -9.4896   17.7961 H   0  0  0  0  0  0  0  0  0  0  0  0
  -11.6489   -9.8040   16.1570 H   0  0  0  0  0  0  0  0  0  0  0  0
   -9.7172  -11.2432   16.7443 H   0  0  0  0  0  0  0  0  0  0  0  0
   -9.8753   -9.4618   14.4000 H   0  0  0  0  0  0  0  0  0  0  0  0
   -8.2008   -9.9037   14.7020 H   0  0  0  0  0  0  0  0  0  0  0  0
   -8.6945  -11.9277   13.7095 H   0  0  0  0  0  0  0  0  0  0  0  0
  -12.5528  -13.7990   12.6502 H   0  0  0  0  0  0  0  0  0  0  0  0
  -12.1261  -15.7503   11.1617 H   0  0  0  0  0  0  0  0  0  0  0  0
   -9.7496  -16.4401   10.7143 H   0  0  0  0  0  0  0  0  0  0  0  0
   -7.9272  -15.1454   11.8101 H   0  0  0  0  0  0  0  0  0  0  0  0
   -8.2505  -10.3109   18.1744 H   0  0  0  0  0  0  0  0  0  0  0  0
   -6.1821  -10.4085   18.9000 H   0  0  0  0  0  0  0  0  0  0  0  0
   -5.0327  -10.0427   21.0539 H   0  0  0  0  0  0  0  0  0  0  0  0
   -4.6250   -8.0510   23.0060 H   0  0  0  0  0  0  0  0  0  0  0  0
   -4.9560   -5.5385   23.2660 H   0  0  0  0  0  0  0  0  0  0  0  0
   -6.2059   -4.6821   21.0370 H   0  0  0  0  0  0  0  0  0  0  0  0
   -7.2539   -6.2339   18.7226 H   0  0  0  0  0  0  0  0  0  0  0  0
  1  2  1  0
  2  3  1  0
  3  4  1  0
  4  5  1  0
  5  6  2  0
  5  7  1  0
  7  8  2  0
  8  9  1  0
  9 10  2  0
 10 11  1  0
 11 12  2  0
  2 13  1  0
 13 14  1  0
 14 15  2  0
 14 16  1  0
 16 17  2  0
 17 18  1  0
 18 19  2  0
 19 20  1  0
 20 21  1  0
 21 22  2  0
 22 23  1  0
 23 24  2  0
 12  7  1  0
 24 16  1  0
 23 19  1  0
  1 25  1  0
  1 26  1  0
  1 27  1  0
  2 28  1  0
  3 29  1  0
  3 30  1  0
  4 31  1  0
  8 32  1  0
  9 33  1  0
 10 34  1  0
 11 35  1  0
 13 36  1  0
 17 37  1  0
 18 38  1  0
 20 39  1  0
 21 40  1  0
 22 41  1  0
 24 42  1  0
M  END
>  <Energy>  (92) 
76.153450026985851

>  <compound_id>  (92) 
8333

>  <target_id>  (92) 
1

>  <reference_id>  (92) 
48

>  <inspiration_ids>  (92) 
[40, 48]

>  <energy_score>  (92) 
-3.7999153494287157

>  <distance_score>  (92) 
12.835554232419934

>  <path>  (92) 
/opt/xchem-fragalysis-2/maxwin/BulkDock/SCRATCH/511021/C8333-P48/C8333-P48.minimised.mol

>  <scratch_subdir>  (92) 
/opt/xchem-fragalysis-2/maxwin/BulkDock/SCRATCH/511021/C8333-P48

>  <fragmenstein_runtime>  (92) 
18.589653730392456

>  <fragmenstein_outcome>  (92) 
too moved

>  <fragmenstein_mode>  (92) 
expansion

>  <fragmenstein_error>  (92) 


$$$$
C26233-P40
     RDKit          3D

 41 44  0  0  0  0  0  0  0  0999 V2000
   -7.3781  -16.7057   16.7388 O   0  0  0  0  0  0  0  0  0  0  0  0
   -8.4532  -16.7838   17.1861 C   0  0  0  0  0  0  0  0  0  0  0  0
   -9.5341  -18.1984   17.3171 N   0  0  0  0  0  0  0  0  0  0  0  0
   -9.2441  -20.1133   16.8938 C   0  0  0  0  0  0  0  0  0  0  0  0
   -9.5668  -21.2329   15.2515 C   0  0  0  0  0  0  0  0  0  0  0  0
   -8.6716  -22.2356   14.7689 C   0  0  0  0  0  0  0  0  0  0  0  0
   -8.3840  -22.4305   13.3357 C   0  0  0  0  0  0  0  0  0  0  0  0
   -9.4611  -23.0586   12.8537 C   0  0  0  0  0  0  0  0  0  0  0  0
   -9.7378  -24.1474   12.0901 N   0  0  0  0  0  0  0  0  0  0  0  0
  -11.0936  -24.2796   12.0171 C   0  0  0  0  0  0  0  0  0  0  0  0
  -11.6335  -23.1908   12.6735 C   0  0  0  0  0  0  0  0  0  0  0  0
  -10.5714  -22.3331   13.1444 C   0  0  0  0  0  0  0  0  0  0  0  0
  -10.2914  -21.0880   13.9637 C   0  0  0  0  0  0  0  0  0  0  0  0
   -9.3692  -15.3943   17.9319 N   0  0  0  0  0  0  0  0  0  0  0  0
   -8.9744  -13.6873   18.0511 C   0  0  0  0  0  0  0  0  0  0  0  0
   -8.1035  -12.3725   18.4192 C   0  0  0  0  0  0  0  0  0  0  0  0
   -7.3413  -12.9432   19.8621 C   0  0  0  0  0  0  0  0  0  0  0  0
   -6.6707  -12.1796   21.8665 C   0  0  0  0  0  0  0  0  0  0  0  0
   -6.0539  -12.7080   23.2644 C   0  0  0  0  0  0  0  0  0  0  0  0
   -5.9327  -11.6352   24.1407 C   0  0  0  0  0  0  0  0  0  0  0  0
   -6.8128  -10.7388   23.7099 O   0  0  0  0  0  0  0  0  0  0  0  0
   -7.5343  -11.3158   22.6521 N   0  0  0  0  0  0  0  0  0  0  0  0
   -9.1187  -13.5008   19.6319 C   0  0  0  0  0  0  0  0  0  0  0  0
  -10.4228  -17.9117   17.6762 H   0  0  0  0  0  0  0  0  0  0  0  0
   -9.2861  -20.6673   17.8262 H   0  0  0  0  0  0  0  0  0  0  0  0
   -8.2041  -20.2601   17.3614 H   0  0  0  0  0  0  0  0  0  0  0  0
   -7.8537  -22.5509   15.3653 H   0  0  0  0  0  0  0  0  0  0  0  0
   -7.3871  -22.5095   12.9207 H   0  0  0  0  0  0  0  0  0  0  0  0
   -9.0633  -24.8294   11.7675 H   0  0  0  0  0  0  0  0  0  0  0  0
  -11.5559  -25.1310   11.5362 H   0  0  0  0  0  0  0  0  0  0  0  0
  -12.6981  -23.0625   12.8137 H   0  0  0  0  0  0  0  0  0  0  0  0
  -10.8539  -20.2010   13.7214 H   0  0  0  0  0  0  0  0  0  0  0  0
  -10.2469  -15.7331   18.3231 H   0  0  0  0  0  0  0  0  0  0  0  0
   -9.8283  -13.3050   17.4679 H   0  0  0  0  0  0  0  0  0  0  0  0
   -7.4415  -11.9767   17.6718 H   0  0  0  0  0  0  0  0  0  0  0  0
   -8.7733  -11.4898   18.4961 H   0  0  0  0  0  0  0  0  0  0  0  0
   -6.5120  -12.4490   19.2861 H   0  0  0  0  0  0  0  0  0  0  0  0
   -5.5357  -13.6352   23.3881 H   0  0  0  0  0  0  0  0  0  0  0  0
   -5.4251  -11.3995   25.0530 H   0  0  0  0  0  0  0  0  0  0  0  0
   -9.2986  -14.5035   19.9192 H   0  0  0  0  0  0  0  0  0  0  0  0
   -9.9627  -12.8608   19.9267 H   0  0  0  0  0  0  0  0  0  0  0  0
  1  2  2  0
  2  3  1  0
  3  4  1  0
  4  5  1  0
  5  6  2  0
  6  7  1  0
  7  8  2  0
  8  9  1  0
  9 10  1  0
 10 11  2  0
 11 12  1  0
 12 13  2  0
  2 14  1  0
 14 15  1  0
 15 16  1  0
 16 17  1  0
 17 18  1  0
 18 19  1  0
 19 20  2  0
 20 21  1  0
 21 22  1  0
 17 23  1  0
 13  5  1  0
 23 15  1  0
 12  8  1  0
 22 18  2  0
  3 24  1  0
  4 25  1  0
  4 26  1  0
  6 27  1  0
  7 28  1  0
  9 29  1  0
 10 30  1  0
 11 31  1  0
 13 32  1  0
 14 33  1  0
 15 34  1  0
 16 35  1  0
 16 36  1  0
 17 37  1  0
 19 38  1  0
 20 39  1  0
 23 40  1  0
 23 41  1  0
M  END
>  <Energy>  (93) 
671.29318748258504

>  <compound_id>  (93) 
26233

>  <target_id>  (93) 
1

>  <reference_id>  (93) 
40

>  <inspiration_ids>  (93) 
[40, 48]

>  <energy_score>  (93) 
700.8585080065502

>  <distance_score>  (93) 
9.218141456344277

>  <path>  (93) 
/opt/xchem-fragalysis-2/maxwin/BulkDock/SCRATCH/511021/C26233-P40/C26233-P40.minimised.mol

>  <scratch_subdir>  (93) 
/opt/xchem-fragalysis-2/maxwin/BulkDock/SCRATCH/511021/C26233-P40

>  <fragmenstein_runtime>  (93) 
33.09596800804138

>  <fragmenstein_outcome>  (93) 
too moved

>  <fragmenstein_mode>  (93) 
expansion

>  <fragmenstein_error>  (93) 


$$$$
C26233-P48
     RDKit          3D

 41 44  0  0  0  0  0  0  0  0999 V2000
   -6.6535  -21.2914   18.6456 O   0  0  0  0  0  0  0  0  0  0  0  0
   -7.6350  -20.6067   18.5009 C   0  0  0  0  0  0  0  0  0  0  0  0
   -8.9477  -20.7979   17.3726 N   0  0  0  0  0  0  0  0  0  0  0  0
   -9.2076  -22.0740   15.9011 C   0  0  0  0  0  0  0  0  0  0  0  0
  -10.0426  -23.2389   14.9105 C   0  0  0  0  0  0  0  0  0  0  0  0
   -9.8471  -24.6495   14.9516 C   0  0  0  0  0  0  0  0  0  0  0  0
  -10.2636  -25.6421   14.0387 C   0  0  0  0  0  0  0  0  0  0  0  0
  -11.0579  -25.2206   13.0148 C   0  0  0  0  0  0  0  0  0  0  0  0
  -11.6547  -25.9529   12.0183 N   0  0  0  0  0  0  0  0  0  0  0  0
  -12.5746  -25.1746   11.3927 C   0  0  0  0  0  0  0  0  0  0  0  0
  -12.4604  -23.9240   11.9532 C   0  0  0  0  0  0  0  0  0  0  0  0
  -11.3937  -23.8823   12.8858 C   0  0  0  0  0  0  0  0  0  0  0  0
  -10.7506  -22.8881   13.7191 C   0  0  0  0  0  0  0  0  0  0  0  0
   -8.1088  -19.2563   19.3638 N   0  0  0  0  0  0  0  0  0  0  0  0
   -7.3798  -18.4691   20.8462 C   0  0  0  0  0  0  0  0  0  0  0  0
   -6.6875  -17.1672   20.5717 C   0  0  0  0  0  0  0  0  0  0  0  0
   -5.2478  -17.0142   21.7904 C   0  0  0  0  0  0  0  0  0  0  0  0
   -4.7509  -15.3518   23.1673 C   0  0  0  0  0  0  0  0  0  0  0  0
   -5.6980  -13.8382   23.5971 C   0  0  0  0  0  0  0  0  0  0  0  0
   -4.7746  -13.0472   24.1319 C   0  0  0  0  0  0  0  0  0  0  0  0
   -3.5376  -14.3079   23.7829 O   0  0  0  0  0  0  0  0  0  0  0  0
   -3.8766  -15.4913   24.0728 N   0  0  0  0  0  0  0  0  0  0  0  0
   -6.2363  -18.6251   21.8531 C   0  0  0  0  0  0  0  0  0  0  0  0
   -9.5564  -20.0352   17.4415 H   0  0  0  0  0  0  0  0  0  0  0  0
   -9.7153  -21.2922   15.3163 H   0  0  0  0  0  0  0  0  0  0  0  0
   -8.2319  -22.3222   15.4320 H   0  0  0  0  0  0  0  0  0  0  0  0
   -9.2587  -25.1570   15.6937 H   0  0  0  0  0  0  0  0  0  0  0  0
   -9.9907  -26.6820   14.1853 H   0  0  0  0  0  0  0  0  0  0  0  0
  -11.5268  -26.9459   11.8772 H   0  0  0  0  0  0  0  0  0  0  0  0
  -13.2551  -25.5761   10.6541 H   0  0  0  0  0  0  0  0  0  0  0  0
  -13.1577  -23.1490   11.7484 H   0  0  0  0  0  0  0  0  0  0  0  0
  -10.9085  -21.8422   13.4654 H   0  0  0  0  0  0  0  0  0  0  0  0
   -8.9365  -18.8609   18.9450 H   0  0  0  0  0  0  0  0  0  0  0  0
   -8.3106  -18.3283   21.4212 H   0  0  0  0  0  0  0  0  0  0  0  0
   -7.4919  -16.4747   20.6873 H   0  0  0  0  0  0  0  0  0  0  0  0
   -6.3229  -17.3749   19.5609 H   0  0  0  0  0  0  0  0  0  0  0  0
   -4.2879  -16.8887   21.2577 H   0  0  0  0  0  0  0  0  0  0  0  0
   -6.7474  -13.6263   23.7409 H   0  0  0  0  0  0  0  0  0  0  0  0
   -4.3513  -12.1427   24.5995 H   0  0  0  0  0  0  0  0  0  0  0  0
   -5.7582  -19.4631   21.3269 H   0  0  0  0  0  0  0  0  0  0  0  0
   -6.6283  -18.8595   22.8481 H   0  0  0  0  0  0  0  0  0  0  0  0
  1  2  2  0
  2  3  1  0
  3  4  1  0
  4  5  1  0
  5  6  2  0
  6  7  1  0
  7  8  2  0
  8  9  1  0
  9 10  1  0
 10 11  2  0
 11 12  1  0
 12 13  2  0
  2 14  1  0
 14 15  1  0
 15 16  1  0
 16 17  1  0
 17 18  1  0
 18 19  1  0
 19 20  2  0
 20 21  1  0
 21 22  1  0
 17 23  1  0
 13  5  1  0
 23 15  1  0
 12  8  1  0
 22 18  2  0
  3 24  1  0
  4 25  1  0
  4 26  1  0
  6 27  1  0
  7 28  1  0
  9 29  1  0
 10 30  1  0
 11 31  1  0
 13 32  1  0
 14 33  1  0
 15 34  1  0
 16 35  1  0
 16 36  1  0
 17 37  1  0
 19 38  1  0
 20 39  1  0
 23 40  1  0
 23 41  1  0
M  END
>  <Energy>  (94) 
570.91184971313021

>  <compound_id>  (94) 
26233

>  <target_id>  (94) 
1

>  <reference_id>  (94) 
48

>  <inspiration_ids>  (94) 
[40, 48]

>  <energy_score>  (94) 
600.4771702370879

>  <distance_score>  (94) 
8.464169269011204

>  <path>  (94) 
/opt/xchem-fragalysis-2/maxwin/BulkDock/SCRATCH/511021/C26233-P48/C26233-P48.minimised.mol

>  <scratch_subdir>  (94) 
/opt/xchem-fragalysis-2/maxwin/BulkDock/SCRATCH/511021/C26233-P48

>  <fragmenstein_runtime>  (94) 
35.84062433242798

>  <fragmenstein_outcome>  (94) 
too moved

>  <fragmenstein_mode>  (94) 
expansion

>  <fragmenstein_error>  (94) 


$$$$
C26234-P40
     RDKit          3D

 34 36  0  0  0  0  0  0  0  0999 V2000
    1.9492   -6.7730   28.7331 C   0  0  0  0  0  0  0  0  0  0  0  0
    0.8629   -7.2375   29.6564 C   0  0  0  0  0  0  0  0  0  0  0  0
   -0.1198   -8.2439   29.6865 C   0  0  0  0  0  0  0  0  0  0  0  0
   -1.4778   -7.5109   29.8078 C   0  0  0  0  0  0  0  0  0  0  0  0
   -2.6869   -7.3893   28.4059 C   0  0  0  0  0  0  0  0  0  0  0  0
   -2.8174   -7.1274   26.7644 C   0  0  0  0  0  0  0  0  0  0  0  0
   -2.1851   -6.5656   24.7682 C   0  0  0  0  0  0  0  0  0  0  0  0
   -3.5292   -6.1036   23.4223 N   0  0  0  0  0  0  0  0  0  0  0  0
   -4.4845   -7.1167   22.3943 C   0  0  0  0  0  0  0  0  0  0  0  0
   -4.4993   -8.2837   22.4402 O   0  0  0  0  0  0  0  0  0  0  0  0
   -5.1386   -6.2122   21.4557 N   0  0  0  0  0  0  0  0  0  0  0  0
   -5.8858   -6.4810   20.3006 C   0  0  0  0  0  0  0  0  0  0  0  0
   -6.3566   -5.6875   19.2344 C   0  0  0  0  0  0  0  0  0  0  0  0
   -6.9384   -6.5658   18.3380 C   0  0  0  0  0  0  0  0  0  0  0  0
   -6.8585   -7.8230   18.8208 O   0  0  0  0  0  0  0  0  0  0  0  0
   -6.2232   -7.7729   20.0399 N   0  0  0  0  0  0  0  0  0  0  0  0
   -2.2156   -6.6802   28.0076 C   0  0  0  0  0  0  0  0  0  0  0  0
   -1.2001   -5.5259   29.0349 C   0  0  0  0  0  0  0  0  0  0  0  0
   -0.8651   -6.2713   30.0728 C   0  0  0  0  0  0  0  0  0  0  0  0
    0.3692   -6.3807   30.6327 N   0  0  0  0  0  0  0  0  0  0  0  0
    2.1046   -7.4583   27.9006 H   0  0  0  0  0  0  0  0  0  0  0  0
    2.9010   -6.6108   29.2441 H   0  0  0  0  0  0  0  0  0  0  0  0
    1.6721   -5.8097   28.2891 H   0  0  0  0  0  0  0  0  0  0  0  0
   -0.0753   -9.1789   29.1531 H   0  0  0  0  0  0  0  0  0  0  0  0
   -3.7030   -7.5816   28.9020 H   0  0  0  0  0  0  0  0  0  0  0  0
   -1.8172   -5.4861   24.5496 H   0  0  0  0  0  0  0  0  0  0  0  0
   -1.4841   -7.0951   24.1641 H   0  0  0  0  0  0  0  0  0  0  0  0
   -3.7559   -5.1388   23.2410 H   0  0  0  0  0  0  0  0  0  0  0  0
   -4.8503   -5.2711   21.6523 H   0  0  0  0  0  0  0  0  0  0  0  0
   -6.2596   -4.6210   19.1044 H   0  0  0  0  0  0  0  0  0  0  0  0
   -7.4176   -6.4577   17.3761 H   0  0  0  0  0  0  0  0  0  0  0  0
   -1.0958   -7.6214   27.8353 H   0  0  0  0  0  0  0  0  0  0  0  0
   -0.8455   -4.5696   28.6619 H   0  0  0  0  0  0  0  0  0  0  0  0
    0.8829   -5.5592   30.9183 H   0  0  0  0  0  0  0  0  0  0  0  0
  1  2  1  0
  2  3  2  0
  3  4  1  0
  4  5  2  0
  5  6  1  0
  6  7  1  0
  7  8  1  0
  8  9  1  0
  9 10  2  0
  9 11  1  0
 11 12  1  0
 12 13  1  0
 13 14  2  0
 14 15  1  0
 15 16  1  0
  6 17  2  0
 17 18  1  0
 18 19  2  0
 19 20  1  0
 20  2  1  0
 19  4  1  0
 16 12  2  0
  1 21  1  0
  1 22  1  0
  1 23  1  0
  3 24  1  0
  5 25  1  0
  7 26  1  0
  7 27  1  0
  8 28  1  0
 11 29  1  0
 13 30  1  0
 14 31  1  0
 17 32  1  0
 18 33  1  0
 20 34  1  0
M  END
>  <Energy>  (95) 
816.2892584564629

>  <compound_id>  (95) 
26234

>  <target_id>  (95) 
1

>  <reference_id>  (95) 
40

>  <inspiration_ids>  (95) 
[40, 48]

>  <energy_score>  (95) 
875.6578658799268

>  <distance_score>  (95) 
13.756393624922564

>  <path>  (95) 
/opt/xchem-fragalysis-2/maxwin/BulkDock/SCRATCH/511021/C26234-P40/C26234-P40.minimised.mol

>  <scratch_subdir>  (95) 
/opt/xchem-fragalysis-2/maxwin/BulkDock/SCRATCH/511021/C26234-P40

>  <fragmenstein_runtime>  (95) 
12.12415361404419

>  <fragmenstein_outcome>  (95) 
too moved

>  <fragmenstein_mode>  (95) 
expansion

>  <fragmenstein_error>  (95) 


$$$$
C26234-P48
     RDKit          3D

 34 36  0  0  0  0  0  0  0  0999 V2000
    0.9337   -6.7991   32.5019 C   0  0  0  0  0  0  0  0  0  0  0  0
    0.1767   -7.2751   31.3206 C   0  0  0  0  0  0  0  0  0  0  0  0
    0.4279   -8.1956   30.3275 C   0  0  0  0  0  0  0  0  0  0  0  0
   -0.6087   -8.2346   29.4245 C   0  0  0  0  0  0  0  0  0  0  0  0
   -0.7777   -8.5906   28.0491 C   0  0  0  0  0  0  0  0  0  0  0  0
   -1.9919   -7.8867   26.7651 C   0  0  0  0  0  0  0  0  0  0  0  0
   -2.6155   -9.4412   25.6545 C   0  0  0  0  0  0  0  0  0  0  0  0
   -3.0125  -10.0650   24.3175 N   0  0  0  0  0  0  0  0  0  0  0  0
   -4.3796  -10.0130   23.5222 C   0  0  0  0  0  0  0  0  0  0  0  0
   -5.3928   -9.4764   23.8023 O   0  0  0  0  0  0  0  0  0  0  0  0
   -3.9871  -10.7445   22.2819 N   0  0  0  0  0  0  0  0  0  0  0  0
   -4.6588  -10.9190   21.0815 C   0  0  0  0  0  0  0  0  0  0  0  0
   -4.0441  -11.4791   19.9197 C   0  0  0  0  0  0  0  0  0  0  0  0
   -4.9713  -11.3662   18.9176 C   0  0  0  0  0  0  0  0  0  0  0  0
   -6.0928  -10.8156   19.4223 O   0  0  0  0  0  0  0  0  0  0  0  0
   -5.8853  -10.4866   20.7609 N   0  0  0  0  0  0  0  0  0  0  0  0
   -2.8292   -7.1939   27.4427 C   0  0  0  0  0  0  0  0  0  0  0  0
   -2.2598   -6.8282   28.7290 C   0  0  0  0  0  0  0  0  0  0  0  0
   -1.4372   -7.2516   29.8031 C   0  0  0  0  0  0  0  0  0  0  0  0
   -1.0087   -6.6953   30.9717 N   0  0  0  0  0  0  0  0  0  0  0  0
    0.9098   -7.5461   33.3001 H   0  0  0  0  0  0  0  0  0  0  0  0
    0.5084   -5.8733   32.9044 H   0  0  0  0  0  0  0  0  0  0  0  0
    1.9737   -6.5906   32.2394 H   0  0  0  0  0  0  0  0  0  0  0  0
    1.3059   -8.7286   30.0894 H   0  0  0  0  0  0  0  0  0  0  0  0
   -0.4248   -9.6021   27.9867 H   0  0  0  0  0  0  0  0  0  0  0  0
   -2.3533  -10.3239   26.1995 H   0  0  0  0  0  0  0  0  0  0  0  0
   -3.6049   -9.0823   25.7405 H   0  0  0  0  0  0  0  0  0  0  0  0
   -2.3696  -10.6774   23.8429 H   0  0  0  0  0  0  0  0  0  0  0  0
   -3.0873  -11.1462   22.4089 H   0  0  0  0  0  0  0  0  0  0  0  0
   -3.0479  -11.8844   19.8353 H   0  0  0  0  0  0  0  0  0  0  0  0
   -4.9907  -11.6101   17.8683 H   0  0  0  0  0  0  0  0  0  0  0  0
   -3.8566   -7.5316   27.3150 H   0  0  0  0  0  0  0  0  0  0  0  0
   -1.8883   -5.7781   28.5102 H   0  0  0  0  0  0  0  0  0  0  0  0
   -1.4203   -5.9019   31.4432 H   0  0  0  0  0  0  0  0  0  0  0  0
  1  2  1  0
  2  3  2  0
  3  4  1  0
  4  5  2  0
  5  6  1  0
  6  7  1  0
  7  8  1  0
  8  9  1  0
  9 10  2  0
  9 11  1  0
 11 12  1  0
 12 13  1  0
 13 14  2  0
 14 15  1  0
 15 16  1  0
  6 17  2  0
 17 18  1  0
 18 19  2  0
 19 20  1  0
 20  2  1  0
 19  4  1  0
 16 12  2  0
  1 21  1  0
  1 22  1  0
  1 23  1  0
  3 24  1  0
  5 25  1  0
  7 26  1  0
  7 27  1  0
  8 28  1  0
 11 29  1  0
 13 30  1  0
 14 31  1  0
 17 32  1  0
 18 33  1  0
 20 34  1  0
M  END
>  <Energy>  (96) 
241.11332993051548

>  <compound_id>  (96) 
26234

>  <target_id>  (96) 
1

>  <reference_id>  (96) 
48

>  <inspiration_ids>  (96) 
[40, 48]

>  <energy_score>  (96) 
300.4819373539868

>  <distance_score>  (96) 
12.236893309336441

>  <path>  (96) 
/opt/xchem-fragalysis-2/maxwin/BulkDock/SCRATCH/511021/C26234-P48/C26234-P48.minimised.mol

>  <scratch_subdir>  (96) 
/opt/xchem-fragalysis-2/maxwin/BulkDock/SCRATCH/511021/C26234-P48

>  <fragmenstein_runtime>  (96) 
16.064390659332275

>  <fragmenstein_outcome>  (96) 
too moved

>  <fragmenstein_mode>  (96) 
expansion

>  <fragmenstein_error>  (96) 


$$$$
C58699-P40
     RDKit          3D

 37 39  0  0  0  0  0  0  0  0999 V2000
    4.7985   -7.2872   25.1191 C   0  0  0  0  0  0  0  0  0  0  0  0
    3.6507   -8.1617   25.4759 C   0  0  0  0  0  0  0  0  0  0  0  0
    3.0123   -9.1938   24.7979 C   0  0  0  0  0  0  0  0  0  0  0  0
    1.7638   -9.5579   25.4539 C   0  0  0  0  0  0  0  0  0  0  0  0
    0.2741  -10.4431   24.7924 C   0  0  0  0  0  0  0  0  0  0  0  0
   -1.6472  -10.0114   25.6782 C   0  0  0  0  0  0  0  0  0  0  0  0
   -2.8551  -11.3828   25.0721 C   0  0  0  0  0  0  0  0  0  0  0  0
   -3.3144  -13.0418   24.4631 N   0  0  0  0  0  0  0  0  0  0  0  0
   -2.7087  -13.9437   23.1853 C   0  0  0  0  0  0  0  0  0  0  0  0
   -1.7738  -13.7173   22.4571 O   0  0  0  0  0  0  0  0  0  0  0  0
   -3.9080  -15.2757   23.0658 N   0  0  0  0  0  0  0  0  0  0  0  0
   -4.1537  -16.5486   21.7740 C   0  0  0  0  0  0  0  0  0  0  0  0
   -3.7718  -16.6273   20.4629 C   0  0  0  0  0  0  0  0  0  0  0  0
   -4.5990  -17.5888   19.3112 C   0  0  0  0  0  0  0  0  0  0  0  0
   -5.6335  -18.4317   19.3606 N   0  0  0  0  0  0  0  0  0  0  0  0
   -6.0894  -18.4144   20.5773 C   0  0  0  0  0  0  0  0  0  0  0  0
   -5.5109  -17.6024   21.6124 C   0  0  0  0  0  0  0  0  0  0  0  0
   -0.9577   -8.3939   27.0166 C   0  0  0  0  0  0  0  0  0  0  0  0
    0.6080   -8.0790   27.8527 C   0  0  0  0  0  0  0  0  0  0  0  0
    1.9032   -8.6732   26.8738 C   0  0  0  0  0  0  0  0  0  0  0  0
    3.0778   -7.9430   26.6900 N   0  0  0  0  0  0  0  0  0  0  0  0
    4.8839   -7.1659   24.0434 H   0  0  0  0  0  0  0  0  0  0  0  0
    5.7308   -7.6929   25.5225 H   0  0  0  0  0  0  0  0  0  0  0  0
    4.6714   -6.2819   25.5380 H   0  0  0  0  0  0  0  0  0  0  0  0
    3.2799   -9.5615   23.8183 H   0  0  0  0  0  0  0  0  0  0  0  0
    0.5349  -11.3142   24.0591 H   0  0  0  0  0  0  0  0  0  0  0  0
   -3.1223  -11.7335   26.0745 H   0  0  0  0  0  0  0  0  0  0  0  0
   -3.5653  -10.7980   24.4771 H   0  0  0  0  0  0  0  0  0  0  0  0
   -4.1550  -13.4700   24.8131 H   0  0  0  0  0  0  0  0  0  0  0  0
   -4.5251  -15.2568   23.8644 H   0  0  0  0  0  0  0  0  0  0  0  0
   -2.9868  -15.9983   20.0239 H   0  0  0  0  0  0  0  0  0  0  0  0
   -4.3135  -17.3812   18.2666 H   0  0  0  0  0  0  0  0  0  0  0  0
   -6.9776  -18.9941   20.7796 H   0  0  0  0  0  0  0  0  0  0  0  0
   -6.2312  -17.7676   22.4401 H   0  0  0  0  0  0  0  0  0  0  0  0
   -1.7123   -7.7002   27.6297 H   0  0  0  0  0  0  0  0  0  0  0  0
    0.7786   -7.2265   28.5062 H   0  0  0  0  0  0  0  0  0  0  0  0
    3.3696   -7.2061   27.3152 H   0  0  0  0  0  0  0  0  0  0  0  0
  1  2  1  0
  2  3  2  0
  3  4  1  0
  4  5  2  0
  5  6  1  0
  6  7  1  0
  7  8  1  0
  8  9  1  0
  9 10  2  0
  9 11  1  0
 11 12  1  0
 12 13  2  0
 13 14  1  0
 14 15  2  0
 15 16  1  0
 16 17  2  0
  6 18  2  0
 18 19  1  0
 19 20  2  0
 20 21  1  0
 21  2  1  0
 20  4  1  0
 17 12  1  0
  1 22  1  0
  1 23  1  0
  1 24  1  0
  3 25  1  0
  5 26  1  0
  7 27  1  0
  7 28  1  0
  8 29  1  0
 11 30  1  0
 13 31  1  0
 14 32  1  0
 16 33  1  0
 17 34  1  0
 18 35  1  0
 19 36  1  0
 21 37  1  0
M  END
>  <Energy>  (97) 
1035.2627418190398

>  <compound_id>  (97) 
58699

>  <target_id>  (97) 
1

>  <reference_id>  (97) 
40

>  <inspiration_ids>  (97) 
[40, 48]

>  <energy_score>  (97) 
1071.3404359553922

>  <distance_score>  (97) 
11.09972537200447

>  <path>  (97) 
/opt/xchem-fragalysis-2/maxwin/BulkDock/SCRATCH/511021/C58699-P40/C58699-P40.minimised.mol

>  <scratch_subdir>  (97) 
/opt/xchem-fragalysis-2/maxwin/BulkDock/SCRATCH/511021/C58699-P40

>  <fragmenstein_runtime>  (97) 
11.222394704818726

>  <fragmenstein_outcome>  (97) 
too moved

>  <fragmenstein_mode>  (97) 
expansion

>  <fragmenstein_error>  (97) 


$$$$
C58699-P48
     RDKit          3D

 37 39  0  0  0  0  0  0  0  0999 V2000
   -1.9337  -14.2555   26.1949 C   0  0  0  0  0  0  0  0  0  0  0  0
   -1.0941  -14.5125   25.0064 C   0  0  0  0  0  0  0  0  0  0  0  0
   -0.6272  -15.7251   24.5406 C   0  0  0  0  0  0  0  0  0  0  0  0
   -0.7810  -15.6280   23.1299 C   0  0  0  0  0  0  0  0  0  0  0  0
   -1.0727  -16.5936   22.1199 C   0  0  0  0  0  0  0  0  0  0  0  0
   -1.9089  -16.1558   21.0942 C   0  0  0  0  0  0  0  0  0  0  0  0
   -3.6269  -16.7657   20.7263 C   0  0  0  0  0  0  0  0  0  0  0  0
   -4.8973  -18.0563   20.1052 N   0  0  0  0  0  0  0  0  0  0  0  0
   -5.0445  -18.8365   18.6128 C   0  0  0  0  0  0  0  0  0  0  0  0
   -4.3335  -18.7227   17.6744 O   0  0  0  0  0  0  0  0  0  0  0  0
   -6.3434  -19.8901   18.7981 N   0  0  0  0  0  0  0  0  0  0  0  0
   -6.9944  -21.2907   17.6576 C   0  0  0  0  0  0  0  0  0  0  0  0
   -6.3947  -23.0726   17.1225 C   0  0  0  0  0  0  0  0  0  0  0  0
   -7.2324  -23.8413   15.8971 C   0  0  0  0  0  0  0  0  0  0  0  0
   -8.5353  -23.2992   15.3117 N   0  0  0  0  0  0  0  0  0  0  0  0
   -9.2340  -22.0525   16.0037 C   0  0  0  0  0  0  0  0  0  0  0  0
   -8.6137  -21.0137   17.3462 C   0  0  0  0  0  0  0  0  0  0  0  0
   -1.4794  -14.8830   20.6412 C   0  0  0  0  0  0  0  0  0  0  0  0
   -0.9629  -13.8783   21.5013 C   0  0  0  0  0  0  0  0  0  0  0  0
   -0.8495  -14.2709   22.8235 C   0  0  0  0  0  0  0  0  0  0  0  0
   -0.8389  -13.5815   24.0179 N   0  0  0  0  0  0  0  0  0  0  0  0
   -2.2439  -13.2144   26.2775 H   0  0  0  0  0  0  0  0  0  0  0  0
   -1.4303  -14.5800   27.1025 H   0  0  0  0  0  0  0  0  0  0  0  0
   -2.8561  -14.8437   26.1186 H   0  0  0  0  0  0  0  0  0  0  0  0
   -0.6476  -16.6496   25.1024 H   0  0  0  0  0  0  0  0  0  0  0  0
   -0.9522  -17.6475   22.3476 H   0  0  0  0  0  0  0  0  0  0  0  0
   -3.4895  -16.3266   19.7758 H   0  0  0  0  0  0  0  0  0  0  0  0
   -4.1418  -16.4561   21.6302 H   0  0  0  0  0  0  0  0  0  0  0  0
   -5.6946  -18.2845   20.6843 H   0  0  0  0  0  0  0  0  0  0  0  0
   -6.8102  -19.6968   19.6720 H   0  0  0  0  0  0  0  0  0  0  0  0
   -5.3569  -23.4467   17.1722 H   0  0  0  0  0  0  0  0  0  0  0  0
   -6.8234  -24.7173   15.4077 H   0  0  0  0  0  0  0  0  0  0  0  0
  -10.0435  -21.6936   15.3866 H   0  0  0  0  0  0  0  0  0  0  0  0
   -9.0801  -20.1176   17.6723 H   0  0  0  0  0  0  0  0  0  0  0  0
   -1.5861  -14.6214   19.5917 H   0  0  0  0  0  0  0  0  0  0  0  0
   -0.8492  -12.8540   21.1716 H   0  0  0  0  0  0  0  0  0  0  0  0
   -1.0081  -12.5851   24.1129 H   0  0  0  0  0  0  0  0  0  0  0  0
  1  2  1  0
  2  3  2  0
  3  4  1  0
  4  5  2  0
  5  6  1  0
  6  7  1  0
  7  8  1  0
  8  9  1  0
  9 10  2  0
  9 11  1  0
 11 12  1  0
 12 13  2  0
 13 14  1  0
 14 15  2  0
 15 16  1  0
 16 17  2  0
  6 18  2  0
 18 19  1  0
 19 20  2  0
 20 21  1  0
 21  2  1  0
 20  4  1  0
 17 12  1  0
  1 22  1  0
  1 23  1  0
  1 24  1  0
  3 25  1  0
  5 26  1  0
  7 27  1  0
  7 28  1  0
  8 29  1  0
 11 30  1  0
 13 31  1  0
 14 32  1  0
 16 33  1  0
 17 34  1  0
 18 35  1  0
 19 36  1  0
 21 37  1  0
M  END
>  <Energy>  (98) 
515.12258788537861

>  <compound_id>  (98) 
58699

>  <target_id>  (98) 
1

>  <reference_id>  (98) 
48

>  <inspiration_ids>  (98) 
[40, 48]

>  <energy_score>  (98) 
551.2002820217315

>  <distance_score>  (98) 
12.165358907535428

>  <path>  (98) 
/opt/xchem-fragalysis-2/maxwin/BulkDock/SCRATCH/511021/C58699-P48/C58699-P48.minimised.mol

>  <scratch_subdir>  (98) 
/opt/xchem-fragalysis-2/maxwin/BulkDock/SCRATCH/511021/C58699-P48

>  <fragmenstein_runtime>  (98) 
11.719208240509033

>  <fragmenstein_outcome>  (98) 
too moved

>  <fragmenstein_mode>  (98) 
expansion

>  <fragmenstein_error>  (98) 


$$$$
C8334-P40
     RDKit          3D

 37 39  0  0  0  0  0  0  0  0999 V2000
   -1.5942  -10.7846   29.8735 C   0  0  0  0  0  0  0  0  0  0  0  0
   -2.7793  -11.9510   29.1300 C   0  0  0  0  0  0  0  0  0  0  0  0
   -2.9062  -12.1560   27.7573 C   0  0  0  0  0  0  0  0  0  0  0  0
   -3.2936  -13.4891   27.5654 C   0  0  0  0  0  0  0  0  0  0  0  0
   -3.0659  -14.2038   26.3862 C   0  0  0  0  0  0  0  0  0  0  0  0
   -4.0083  -14.1644   25.3644 C   0  0  0  0  0  0  0  0  0  0  0  0
   -3.4188  -14.7189   24.0024 C   0  0  0  0  0  0  0  0  0  0  0  0
   -4.2498  -15.6069   23.0237 N   0  0  0  0  0  0  0  0  0  0  0  0
   -3.8930  -16.1550   21.3461 C   0  0  0  0  0  0  0  0  0  0  0  0
   -2.9538  -15.8364   20.6596 O   0  0  0  0  0  0  0  0  0  0  0  0
   -4.9821  -17.1527   21.0928 N   0  0  0  0  0  0  0  0  0  0  0  0
   -5.1913  -18.0292   20.0160 C   0  0  0  0  0  0  0  0  0  0  0  0
   -5.5638  -19.2514   20.2999 C   0  0  0  0  0  0  0  0  0  0  0  0
   -6.8448  -19.2508   20.0704 C   0  0  0  0  0  0  0  0  0  0  0  0
   -6.9839  -19.2870   18.7501 C   0  0  0  0  0  0  0  0  0  0  0  0
   -6.7065  -18.0787   18.3708 C   0  0  0  0  0  0  0  0  0  0  0  0
   -5.6240  -17.5507   18.8565 N   0  0  0  0  0  0  0  0  0  0  0  0
   -5.2551  -13.6132   25.7490 C   0  0  0  0  0  0  0  0  0  0  0  0
   -5.5884  -13.2087   27.1282 C   0  0  0  0  0  0  0  0  0  0  0  0
   -4.5173  -13.1660   28.0490 C   0  0  0  0  0  0  0  0  0  0  0  0
   -4.1314  -12.5430   29.3008 N   0  0  0  0  0  0  0  0  0  0  0  0
   -1.8024  -10.0690   30.6806 H   0  0  0  0  0  0  0  0  0  0  0  0
   -1.0652  -10.2200   29.0866 H   0  0  0  0  0  0  0  0  0  0  0  0
   -0.7910  -11.2082   30.4620 H   0  0  0  0  0  0  0  0  0  0  0  0
   -2.3818  -11.6345   26.9745 H   0  0  0  0  0  0  0  0  0  0  0  0
   -2.0389  -14.4851   26.1557 H   0  0  0  0  0  0  0  0  0  0  0  0
   -2.5963  -14.1215   23.5817 H   0  0  0  0  0  0  0  0  0  0  0  0
   -2.8152  -15.4845   24.4987 H   0  0  0  0  0  0  0  0  0  0  0  0
   -5.1281  -15.9650   23.3137 H   0  0  0  0  0  0  0  0  0  0  0  0
   -5.6490  -17.1074   21.8396 H   0  0  0  0  0  0  0  0  0  0  0  0
   -5.0941  -19.9176   20.9606 H   0  0  0  0  0  0  0  0  0  0  0  0
   -7.5837  -19.6373   20.7314 H   0  0  0  0  0  0  0  0  0  0  0  0
   -7.7154  -19.8692   18.1908 H   0  0  0  0  0  0  0  0  0  0  0  0
   -7.3350  -17.5777   17.6471 H   0  0  0  0  0  0  0  0  0  0  0  0
   -6.0337  -13.5273   24.9913 H   0  0  0  0  0  0  0  0  0  0  0  0
   -6.5576  -12.7849   27.3639 H   0  0  0  0  0  0  0  0  0  0  0  0
   -4.8347  -12.1408   29.8983 H   0  0  0  0  0  0  0  0  0  0  0  0
  1  2  1  0
  2  3  2  0
  3  4  1  0
  4  5  2  0
  5  6  1  0
  6  7  1  0
  7  8  1  0
  8  9  1  0
  9 10  2  0
  9 11  1  0
 11 12  1  0
 12 13  2  0
 13 14  1  0
 14 15  2  0
 15 16  1  0
 16 17  2  0
  6 18  2  0
 18 19  1  0
 19 20  2  0
 20 21  1  0
 21  2  1  0
 20  4  1  0
 17 12  1  0
  1 22  1  0
  1 23  1  0
  1 24  1  0
  3 25  1  0
  5 26  1  0
  7 27  1  0
  7 28  1  0
  8 29  1  0
 11 30  1  0
 13 31  1  0
 14 32  1  0
 15 33  1  0
 16 34  1  0
 18 35  1  0
 19 36  1  0
 21 37  1  0
M  END
>  <Energy>  (99) 
260.58180766991427

>  <compound_id>  (99) 
8334

>  <target_id>  (99) 
1

>  <reference_id>  (99) 
40

>  <inspiration_ids>  (99) 
[40, 48]

>  <energy_score>  (99) 
319.1775965866268

>  <distance_score>  (99) 
12.036945787900809

>  <path>  (99) 
/opt/xchem-fragalysis-2/maxwin/BulkDock/SCRATCH/511021/C8334-P40/C8334-P40.minimised.mol

>  <scratch_subdir>  (99) 
/opt/xchem-fragalysis-2/maxwin/BulkDock/SCRATCH/511021/C8334-P40

>  <fragmenstein_runtime>  (99) 
14.030949831008911

>  <fragmenstein_outcome>  (99) 
too moved

>  <fragmenstein_mode>  (99) 
expansion

>  <fragmenstein_error>  (99) 


$$$$
C8334-P48
     RDKit          3D

 37 39  0  0  0  0  0  0  0  0999 V2000
   -6.7547   -7.7035   27.5505 C   0  0  0  0  0  0  0  0  0  0  0  0
   -7.5364   -8.5116   26.6190 C   0  0  0  0  0  0  0  0  0  0  0  0
   -8.1408   -9.7277   26.8279 C   0  0  0  0  0  0  0  0  0  0  0  0
   -9.0373   -9.9232   25.7528 C   0  0  0  0  0  0  0  0  0  0  0  0
  -10.1057  -10.8186   25.5292 C   0  0  0  0  0  0  0  0  0  0  0  0
  -10.9738  -10.6667   24.4183 C   0  0  0  0  0  0  0  0  0  0  0  0
  -12.2992  -11.4418   24.4260 C   0  0  0  0  0  0  0  0  0  0  0  0
  -12.8718  -12.1032   23.2488 N   0  0  0  0  0  0  0  0  0  0  0  0
  -13.4044  -13.5262   23.0664 C   0  0  0  0  0  0  0  0  0  0  0  0
  -13.3970  -14.4311   23.8161 O   0  0  0  0  0  0  0  0  0  0  0  0
  -14.0272  -13.4053   21.6956 N   0  0  0  0  0  0  0  0  0  0  0  0
  -14.7078  -14.3568   20.9054 C   0  0  0  0  0  0  0  0  0  0  0  0
  -14.8586  -15.6864   21.2817 C   0  0  0  0  0  0  0  0  0  0  0  0
  -15.5446  -16.5827   20.4437 C   0  0  0  0  0  0  0  0  0  0  0  0
  -16.0730  -16.1317   19.2426 C   0  0  0  0  0  0  0  0  0  0  0  0
  -15.8519  -14.8066   18.9171 C   0  0  0  0  0  0  0  0  0  0  0  0
  -15.2028  -13.9197   19.7216 N   0  0  0  0  0  0  0  0  0  0  0  0
  -10.6766   -9.6431   23.5088 C   0  0  0  0  0  0  0  0  0  0  0  0
   -9.5741   -8.7730   23.6712 C   0  0  0  0  0  0  0  0  0  0  0  0
   -8.8046   -8.9086   24.8278 C   0  0  0  0  0  0  0  0  0  0  0  0
   -7.7965   -8.1211   25.3341 N   0  0  0  0  0  0  0  0  0  0  0  0
   -6.9533   -7.9759   28.5910 H   0  0  0  0  0  0  0  0  0  0  0  0
   -5.7082   -7.8883   27.3280 H   0  0  0  0  0  0  0  0  0  0  0  0
   -6.9734   -6.6375   27.4352 H   0  0  0  0  0  0  0  0  0  0  0  0
   -8.0733  -10.3140   27.7361 H   0  0  0  0  0  0  0  0  0  0  0  0
  -10.3168  -11.5689   26.2887 H   0  0  0  0  0  0  0  0  0  0  0  0
  -12.2405  -12.2256   25.1910 H   0  0  0  0  0  0  0  0  0  0  0  0
  -13.0709  -10.7411   24.7679 H   0  0  0  0  0  0  0  0  0  0  0  0
  -12.9615  -11.6010   22.3837 H   0  0  0  0  0  0  0  0  0  0  0  0
  -13.9168  -12.4700   21.3626 H   0  0  0  0  0  0  0  0  0  0  0  0
  -14.4668  -16.0343   22.2304 H   0  0  0  0  0  0  0  0  0  0  0  0
  -15.6606  -17.6198   20.7448 H   0  0  0  0  0  0  0  0  0  0  0  0
  -16.6245  -16.7898   18.5832 H   0  0  0  0  0  0  0  0  0  0  0  0
  -16.2119  -14.3874   17.9817 H   0  0  0  0  0  0  0  0  0  0  0  0
  -11.3521   -9.4575   22.6752 H   0  0  0  0  0  0  0  0  0  0  0  0
   -9.4024   -7.9645   22.9676 H   0  0  0  0  0  0  0  0  0  0  0  0
   -7.4583   -7.2760   24.8972 H   0  0  0  0  0  0  0  0  0  0  0  0
  1  2  1  0
  2  3  2  0
  3  4  1  0
  4  5  2  0
  5  6  1  0
  6  7  1  0
  7  8  1  0
  8  9  1  0
  9 10  2  0
  9 11  1  0
 11 12  1  0
 12 13  2  0
 13 14  1  0
 14 15  2  0
 15 16  1  0
 16 17  2  0
  6 18  2  0
 18 19  1  0
 19 20  2  0
 20 21  1  0
 21  2  1  0
 20  4  1  0
 17 12  1  0
  1 22  1  0
  1 23  1  0
  1 24  1  0
  3 25  1  0
  5 26  1  0
  7 27  1  0
  7 28  1  0
  8 29  1  0
 11 30  1  0
 13 31  1  0
 14 32  1  0
 15 33  1  0
 16 34  1  0
 18 35  1  0
 19 36  1  0
 21 37  1  0
M  END
>  <Energy>  (100) 
-43.276664803135866

>  <compound_id>  (100) 
8334

>  <target_id>  (100) 
1

>  <reference_id>  (100) 
48

>  <inspiration_ids>  (100) 
[40, 48]

>  <energy_score>  (100) 
15.319124113575526

>  <distance_score>  (100) 
13.940874432210908

>  <path>  (100) 
/opt/xchem-fragalysis-2/maxwin/BulkDock/SCRATCH/511021/C8334-P48/C8334-P48.minimised.mol

>  <scratch_subdir>  (100) 
/opt/xchem-fragalysis-2/maxwin/BulkDock/SCRATCH/511021/C8334-P48

>  <fragmenstein_runtime>  (100) 
15.032041311264038

>  <fragmenstein_outcome>  (100) 
too moved

>  <fragmenstein_mode>  (100) 
expansion

>  <fragmenstein_error>  (100) 


$$$$
C61965-P106
     RDKit          3D

 38 41  0  0  0  0  0  0  0  0999 V2000
    3.4615   -3.4140   10.4612 O   0  0  0  0  0  0  0  0  0  0  0  0
    3.5359   -3.6506    9.2812 C   0  0  0  0  0  0  0  0  0  0  0  0
    5.4918   -4.1896    8.7802 N   0  0  0  0  0  0  0  0  0  0  0  0
    7.1924   -4.1930    9.8484 C   0  0  0  0  0  0  0  0  0  0  0  0
    7.4814   -2.8053   11.3750 C   0  0  0  0  0  0  0  0  0  0  0  0
    8.3795   -2.9612   12.8874 N   0  0  0  0  0  0  0  0  0  0  0  0
   10.3142   -3.5071   12.6800 C   0  0  0  0  0  0  0  0  0  0  0  0
   11.3999   -3.5414   13.3721 N   0  0  0  0  0  0  0  0  0  0  0  0
   12.1986   -4.2346   12.5136 C   0  0  0  0  0  0  0  0  0  0  0  0
   11.7653   -5.1361   11.4750 C   0  0  0  0  0  0  0  0  0  0  0  0
   10.4788   -4.6004   11.0862 N   0  0  0  0  0  0  0  0  0  0  0  0
    8.6253   -5.1989   10.3715 C   0  0  0  0  0  0  0  0  0  0  0  0
    1.6708   -3.1552    8.4024 C   0  0  0  0  0  0  0  0  0  0  0  0
    1.4387   -1.9100    7.2673 C   0  0  0  0  0  0  0  0  0  0  0  0
    0.0348   -1.5690    6.6069 C   0  0  0  0  0  0  0  0  0  0  0  0
   -1.4924   -1.3807    7.1404 C   0  0  0  0  0  0  0  0  0  0  0  0
   -2.5963   -0.9225    6.7190 O   0  0  0  0  0  0  0  0  0  0  0  0
   -1.3608   -1.3471    8.4448 N   0  0  0  0  0  0  0  0  0  0  0  0
    0.2283   -2.2660    9.0043 C   0  0  0  0  0  0  0  0  0  0  0  0
   -1.9800   -2.4088    8.6552 C   0  0  0  0  0  0  0  0  0  0  0  0
   -3.6804   -1.6207    8.6098 C   0  0  0  0  0  0  0  0  0  0  0  0
   -3.7537   -0.1900    8.5655 C   0  0  0  0  0  0  0  0  0  0  0  0
   -2.2926   -0.0733    8.8326 C   0  0  0  0  0  0  0  0  0  0  0  0
    5.5018   -4.4654    7.8040 H   0  0  0  0  0  0  0  0  0  0  0  0
    6.8476   -1.9251   11.5635 H   0  0  0  0  0  0  0  0  0  0  0  0
   13.2126   -3.8379   12.4312 H   0  0  0  0  0  0  0  0  0  0  0  0
   12.2877   -5.7671   10.7695 H   0  0  0  0  0  0  0  0  0  0  0  0
    8.6857   -6.1268    9.5448 H   0  0  0  0  0  0  0  0  0  0  0  0
    2.4254   -1.6517    6.8511 H   0  0  0  0  0  0  0  0  0  0  0  0
   -0.1930   -1.0457    5.6309 H   0  0  0  0  0  0  0  0  0  0  0  0
   -2.6549   -3.1820    9.1051 H   0  0  0  0  0  0  0  0  0  0  0  0
   -2.3362   -3.0169    7.7086 H   0  0  0  0  0  0  0  0  0  0  0  0
   -4.1833   -1.7141    9.5353 H   0  0  0  0  0  0  0  0  0  0  0  0
   -4.2706   -2.1027    7.8141 H   0  0  0  0  0  0  0  0  0  0  0  0
   -4.3578    0.2298    9.3497 H   0  0  0  0  0  0  0  0  0  0  0  0
   -4.2760    0.0959    7.6555 H   0  0  0  0  0  0  0  0  0  0  0  0
   -2.3278    0.0077    9.8429 H   0  0  0  0  0  0  0  0  0  0  0  0
   -2.0062    0.8656    8.4204 H   0  0  0  0  0  0  0  0  0  0  0  0
  1  2  2  0
  2  3  1  0
  3  4  1  0
  4  5  1  0
  5  6  2  0
  6  7  1  0
  7  8  2  0
  8  9  1  0
  9 10  2  0
 10 11  1  0
 11 12  1  0
  2 13  1  0
 13 14  1  0
 14 15  2  0
 15 16  1  0
 16 17  2  0
 16 18  1  0
 18 19  1  0
 19 20  1  0
 20 21  1  0
 21 22  1  0
 22 23  1  0
 12  4  2  0
 19 13  2  0
 11  7  1  0
 23 18  1  0
  3 24  1  0
  5 25  1  0
  9 26  1  0
 10 27  1  0
 12 28  1  0
 14 29  1  0
 15 30  1  0
 20 31  1  0
 20 32  1  0
 21 33  1  0
 21 34  1  0
 22 35  1  0
 22 36  1  0
 23 37  1  0
 23 38  1  0
M  END
>  <Energy>  (101) 
2304.7386205858484

>  <compound_id>  (101) 
61965

>  <target_id>  (101) 
1

>  <reference_id>  (101) 
106

>  <inspiration_ids>  (101) 
[106, 91]

>  <energy_score>  (101) 
2224.742809454969

>  <distance_score>  (101) 
6.89537971841655

>  <path>  (101) 
/opt/xchem-fragalysis-2/maxwin/BulkDock/SCRATCH/511021/C61965-P106/C61965-P106.minimised.mol

>  <scratch_subdir>  (101) 
/opt/xchem-fragalysis-2/maxwin/BulkDock/SCRATCH/511021/C61965-P106

>  <fragmenstein_runtime>  (101) 
5.697842836380005

>  <fragmenstein_outcome>  (101) 
too moved

>  <fragmenstein_mode>  (101) 
expansion

>  <fragmenstein_error>  (101) 


$$$$
C61966-P106
     RDKit          3D

 38 41  0  0  0  0  0  0  0  0999 V2000
   -0.3752   -0.6392   11.8440 O   0  0  0  0  0  0  0  0  0  0  0  0
    0.0317   -0.9304   10.6220 C   0  0  0  0  0  0  0  0  0  0  0  0
    1.7866   -1.0777   10.6261 O   0  0  0  0  0  0  0  0  0  0  0  0
    3.5023   -0.2172   11.3570 C   0  0  0  0  0  0  0  0  0  0  0  0
    5.4516   -0.7903   11.8471 C   0  0  0  0  0  0  0  0  0  0  0  0
    6.1044   -1.9732   12.6428 C   0  0  0  0  0  0  0  0  0  0  0  0
    7.2096   -1.6184   13.3015 N   0  0  0  0  0  0  0  0  0  0  0  0
    7.7470   -1.9144   14.5628 C   0  0  0  0  0  0  0  0  0  0  0  0
    8.7594   -1.1680   15.0444 C   0  0  0  0  0  0  0  0  0  0  0  0
    9.2317   -0.0888   14.1310 C   0  0  0  0  0  0  0  0  0  0  0  0
    8.7381    0.1710   12.9446 N   0  0  0  0  0  0  0  0  0  0  0  0
    7.6493   -0.6395   12.4833 C   0  0  0  0  0  0  0  0  0  0  0  0
    6.8531   -0.6390   11.3747 N   0  0  0  0  0  0  0  0  0  0  0  0
   -1.6443   -0.8526    9.2978 C   0  0  0  0  0  0  0  0  0  0  0  0
   -1.9919   -1.1983    8.0057 C   0  0  0  0  0  0  0  0  0  0  0  0
   -3.2611   -0.9058    7.1598 C   0  0  0  0  0  0  0  0  0  0  0  0
   -4.5298   -0.4818    7.3946 C   0  0  0  0  0  0  0  0  0  0  0  0
   -4.6418   -0.2730    8.6646 C   0  0  0  0  0  0  0  0  0  0  0  0
   -3.2934   -0.2864    9.3970 C   0  0  0  0  0  0  0  0  0  0  0  0
   -6.1250   -0.2952    9.0286 C   0  0  0  0  0  0  0  0  0  0  0  0
   -6.9792    0.6448    8.1846 C   0  0  0  0  0  0  0  0  0  0  0  0
   -6.3820    0.8249    6.8092 C   0  0  0  0  0  0  0  0  0  0  0  0
   -5.4743   -0.2207    6.4707 O   0  0  0  0  0  0  0  0  0  0  0  0
    3.7818   -1.3432   11.5163 H   0  0  0  0  0  0  0  0  0  0  0  0
    3.7521    0.4855   10.5455 H   0  0  0  0  0  0  0  0  0  0  0  0
    5.5816   -2.8656   12.9315 H   0  0  0  0  0  0  0  0  0  0  0  0
    7.2891   -2.7266   15.0890 H   0  0  0  0  0  0  0  0  0  0  0  0
    9.2874   -1.3096   15.9645 H   0  0  0  0  0  0  0  0  0  0  0  0
   10.0776    0.5132   14.5014 H   0  0  0  0  0  0  0  0  0  0  0  0
   -1.2730   -1.5542    7.3125 H   0  0  0  0  0  0  0  0  0  0  0  0
   -3.0233   -0.7368    6.1115 H   0  0  0  0  0  0  0  0  0  0  0  0
   -3.7717   -0.0713   10.3398 H   0  0  0  0  0  0  0  0  0  0  0  0
   -6.4502   -0.2076   10.0572 H   0  0  0  0  0  0  0  0  0  0  0  0
   -6.4679   -1.3084    8.7707 H   0  0  0  0  0  0  0  0  0  0  0  0
   -7.0966    1.6257    8.6533 H   0  0  0  0  0  0  0  0  0  0  0  0
   -7.9920    0.2303    8.1059 H   0  0  0  0  0  0  0  0  0  0  0  0
   -5.8599    1.7863    6.7355 H   0  0  0  0  0  0  0  0  0  0  0  0
   -7.1731    0.8454    6.0519 H   0  0  0  0  0  0  0  0  0  0  0  0
  1  2  2  0
  2  3  1  0
  3  4  1  0
  4  5  1  0
  5  6  2  0
  6  7  1  0
  7  8  1  0
  8  9  2  0
  9 10  1  0
 10 11  2  0
 11 12  1  0
 12 13  2  0
  2 14  1  0
 14 15  2  0
 15 16  1  0
 16 17  2  0
 17 18  1  0
 18 19  2  0
 18 20  1  0
 20 21  1  0
 21 22  1  0
 22 23  1  0
 13  5  1  0
 19 14  1  0
 12  7  1  0
 23 17  1  0
  4 24  1  0
  4 25  1  0
  6 26  1  0
  8 27  1  0
  9 28  1  0
 10 29  1  0
 15 30  1  0
 16 31  1  0
 19 32  1  0
 20 33  1  0
 20 34  1  0
 21 35  1  0
 21 36  1  0
 22 37  1  0
 22 38  1  0
M  END
>  <Energy>  (102) 
791.43131148420321

>  <compound_id>  (102) 
61966

>  <target_id>  (102) 
1

>  <reference_id>  (102) 
106

>  <inspiration_ids>  (102) 
[106, 91]

>  <energy_score>  (102) 
687.2110518036241

>  <distance_score>  (102) 
5.030630699728803

>  <path>  (102) 
/opt/xchem-fragalysis-2/maxwin/BulkDock/SCRATCH/511021/C61966-P106/C61966-P106.minimised.mol

>  <scratch_subdir>  (102) 
/opt/xchem-fragalysis-2/maxwin/BulkDock/SCRATCH/511021/C61966-P106

>  <fragmenstein_runtime>  (102) 
5.110344886779785

>  <fragmenstein_outcome>  (102) 
too moved

>  <fragmenstein_mode>  (102) 
expansion

>  <fragmenstein_error>  (102) 


$$$$
C61967-P106
     RDKit          3D

 33 36  0  0  0  0  0  0  0  0999 V2000
    5.6840    1.0898    8.5815 O   0  0  0  0  0  0  0  0  0  0  0  0
    5.2964    0.9369    9.7229 C   0  0  0  0  0  0  0  0  0  0  0  0
    4.2067    1.6025   10.4562 N   0  0  0  0  0  0  0  0  0  0  0  0
    3.3627    2.6659   10.0888 C   0  0  0  0  0  0  0  0  0  0  0  0
    2.9196    3.5315   11.1116 C   0  0  0  0  0  0  0  0  0  0  0  0
    1.9605    4.5262   10.8574 C   0  0  0  0  0  0  0  0  0  0  0  0
    1.4823    4.6523    9.5727 C   0  0  0  0  0  0  0  0  0  0  0  0
    1.9966    3.8974    8.5263 C   0  0  0  0  0  0  0  0  0  0  0  0
    2.9455    2.8969    8.7633 C   0  0  0  0  0  0  0  0  0  0  0  0
    1.4275    4.4560    7.2718 C   0  0  0  0  0  0  0  0  0  0  0  0
    0.1792    5.1241    7.8502 C   0  0  0  0  0  0  0  0  0  0  0  0
    0.4999    5.5363    9.1987 O   0  0  0  0  0  0  0  0  0  0  0  0
    6.2903   -0.5220   10.7419 C   0  0  0  0  0  0  0  0  0  0  0  0
    5.9371   -1.0415   12.1873 C   0  0  0  0  0  0  0  0  0  0  0  0
    6.3840   -2.0426   12.9771 N   0  0  0  0  0  0  0  0  0  0  0  0
    7.4153   -1.6009   13.6935 C   0  0  0  0  0  0  0  0  0  0  0  0
    7.8332   -1.5921   14.9393 N   0  0  0  0  0  0  0  0  0  0  0  0
    8.8742   -0.6780   14.9607 C   0  0  0  0  0  0  0  0  0  0  0  0
    8.9798   -0.0078   13.7517 C   0  0  0  0  0  0  0  0  0  0  0  0
    7.9723   -0.5934   12.9256 N   0  0  0  0  0  0  0  0  0  0  0  0
    7.4816   -0.6374   11.4335 C   0  0  0  0  0  0  0  0  0  0  0  0
    4.2183    1.2901   11.4129 H   0  0  0  0  0  0  0  0  0  0  0  0
    3.2721    3.3959   12.1327 H   0  0  0  0  0  0  0  0  0  0  0  0
    1.5763    5.1503   11.6562 H   0  0  0  0  0  0  0  0  0  0  0  0
    3.3324    2.2907    7.9487 H   0  0  0  0  0  0  0  0  0  0  0  0
    2.1178    5.2134    6.8814 H   0  0  0  0  0  0  0  0  0  0  0  0
    1.2032    3.7579    6.4729 H   0  0  0  0  0  0  0  0  0  0  0  0
   -0.1188    5.9989    7.2639 H   0  0  0  0  0  0  0  0  0  0  0  0
   -0.6724    4.4367    7.9024 H   0  0  0  0  0  0  0  0  0  0  0  0
    5.6262   -0.2196   12.7587 H   0  0  0  0  0  0  0  0  0  0  0  0
    9.5057   -0.5529   15.8272 H   0  0  0  0  0  0  0  0  0  0  0  0
    9.7136    0.6832   13.3649 H   0  0  0  0  0  0  0  0  0  0  0  0
    7.6305   -1.6831   11.1477 H   0  0  0  0  0  0  0  0  0  0  0  0
  1  2  2  0
  2  3  1  0
  3  4  1  0
  4  5  2  0
  5  6  1  0
  6  7  2  0
  7  8  1  0
  8  9  2  0
  8 10  1  0
 10 11  1  0
 11 12  1  0
  2 13  1  0
 13 14  1  0
 14 15  2  0
 15 16  1  0
 16 17  2  0
 17 18  1  0
 18 19  2  0
 19 20  1  0
 20 21  1  0
  9  4  1  0
 21 13  2  0
 12  7  1  0
 20 16  1  0
  3 22  1  0
  5 23  1  0
  6 24  1  0
  9 25  1  0
 10 26  1  0
 10 27  1  0
 11 28  1  0
 11 29  1  0
 14 30  1  0
 18 31  1  0
 19 32  1  0
 21 33  1  0
M  END
>  <Energy>  (103) 
321.5980576684106

>  <compound_id>  (103) 
61967

>  <target_id>  (103) 
1

>  <reference_id>  (103) 
106

>  <inspiration_ids>  (103) 
[106, 91]

>  <energy_score>  (103) 
246.08023242123807

>  <distance_score>  (103) 
8.891827363411641

>  <path>  (103) 
/opt/xchem-fragalysis-2/maxwin/BulkDock/SCRATCH/511021/C61967-P106/C61967-P106.minimised.mol

>  <scratch_subdir>  (103) 
/opt/xchem-fragalysis-2/maxwin/BulkDock/SCRATCH/511021/C61967-P106

>  <fragmenstein_runtime>  (103) 
7.024672746658325

>  <fragmenstein_outcome>  (103) 
too moved

>  <fragmenstein_mode>  (103) 
expansion

>  <fragmenstein_error>  (103) 


$$$$
C61968-P106
     RDKit          3D

 45 48  0  0  0  0  0  0  0  0999 V2000
    2.5127   -4.2778   13.3961 C   0  0  0  0  0  0  0  0  0  0  0  0
    3.0817   -4.1988   11.9966 C   0  0  0  0  0  0  0  0  0  0  0  0
    3.4071   -2.7528   11.3244 C   0  0  0  0  0  0  0  0  0  0  0  0
    1.7060   -1.8458   10.6637 N   0  0  0  0  0  0  0  0  0  0  0  0
    0.6715   -2.1001    9.1547 C   0  0  0  0  0  0  0  0  0  0  0  0
    1.1056   -2.8519    8.3547 O   0  0  0  0  0  0  0  0  0  0  0  0
   -1.3550   -1.4790    8.5696 C   0  0  0  0  0  0  0  0  0  0  0  0
   -2.1942   -0.3299    8.7604 C   0  0  0  0  0  0  0  0  0  0  0  0
   -3.6237    0.0577    8.7036 C   0  0  0  0  0  0  0  0  0  0  0  0
   -4.6096   -0.6598    8.1607 C   0  0  0  0  0  0  0  0  0  0  0  0
   -4.1489   -1.8515    7.7696 C   0  0  0  0  0  0  0  0  0  0  0  0
   -2.6518   -2.2185    8.0762 C   0  0  0  0  0  0  0  0  0  0  0  0
   -5.1671   -2.7732    7.0974 C   0  0  0  0  0  0  0  0  0  0  0  0
   -6.5730   -2.1699    6.9297 C   0  0  0  0  0  0  0  0  0  0  0  0
   -6.5581   -0.6554    6.9192 C   0  0  0  0  0  0  0  0  0  0  0  0
   -5.8348   -0.1240    8.0257 O   0  0  0  0  0  0  0  0  0  0  0  0
    5.1396   -2.8043   12.4141 C   0  0  0  0  0  0  0  0  0  0  0  0
    5.8018   -2.7979   13.8877 C   0  0  0  0  0  0  0  0  0  0  0  0
    7.0390   -2.1859   13.9906 N   0  0  0  0  0  0  0  0  0  0  0  0
    7.9096   -2.1963   15.0450 C   0  0  0  0  0  0  0  0  0  0  0  0
    8.9083   -1.3242   15.2196 C   0  0  0  0  0  0  0  0  0  0  0  0
    8.9221   -0.2894   14.1855 C   0  0  0  0  0  0  0  0  0  0  0  0
    8.1219   -0.2849   13.1474 N   0  0  0  0  0  0  0  0  0  0  0  0
    7.2184   -1.3348   12.9717 C   0  0  0  0  0  0  0  0  0  0  0  0
    6.2735   -1.5430   12.1154 N   0  0  0  0  0  0  0  0  0  0  0  0
    3.1561   -4.6497   14.1792 H   0  0  0  0  0  0  0  0  0  0  0  0
    2.1583   -3.3188   13.7198 H   0  0  0  0  0  0  0  0  0  0  0  0
    1.6790   -4.9600   13.4657 H   0  0  0  0  0  0  0  0  0  0  0  0
    3.9786   -4.8232   11.9431 H   0  0  0  0  0  0  0  0  0  0  0  0
    2.5059   -4.7232   11.2901 H   0  0  0  0  0  0  0  0  0  0  0  0
    3.5211   -3.2471   10.3725 H   0  0  0  0  0  0  0  0  0  0  0  0
    1.2748   -1.1286   11.2183 H   0  0  0  0  0  0  0  0  0  0  0  0
   -1.8524    0.6533    8.8699 H   0  0  0  0  0  0  0  0  0  0  0  0
   -3.8218    1.0901    8.9328 H   0  0  0  0  0  0  0  0  0  0  0  0
   -2.6839   -3.2700    7.8077 H   0  0  0  0  0  0  0  0  0  0  0  0
   -4.8202   -3.1492    6.1448 H   0  0  0  0  0  0  0  0  0  0  0  0
   -5.2808   -3.6994    7.6236 H   0  0  0  0  0  0  0  0  0  0  0  0
   -7.2092   -2.4902    7.7612 H   0  0  0  0  0  0  0  0  0  0  0  0
   -7.0469   -2.5603    6.0221 H   0  0  0  0  0  0  0  0  0  0  0  0
   -6.1405   -0.2536    5.9900 H   0  0  0  0  0  0  0  0  0  0  0  0
   -7.5847   -0.2785    6.9857 H   0  0  0  0  0  0  0  0  0  0  0  0
    5.3260   -3.0293   14.8260 H   0  0  0  0  0  0  0  0  0  0  0  0
    7.6986   -3.0544   15.6115 H   0  0  0  0  0  0  0  0  0  0  0  0
    9.6993   -1.3512   15.9446 H   0  0  0  0  0  0  0  0  0  0  0  0
    9.6762    0.5057   14.3033 H   0  0  0  0  0  0  0  0  0  0  0  0
  1  2  1  0
  2  3  1  0
  3  4  1  0
  4  5  1  0
  5  6  2  0
  5  7  1  0
  7  8  2  0
  8  9  1  0
  9 10  2  0
 10 11  1  0
 11 12  2  0
 11 13  1  0
 13 14  1  0
 14 15  1  0
 15 16  1  0
  3 17  1  0
 17 18  2  0
 18 19  1  0
 19 20  1  0
 20 21  2  0
 21 22  1  0
 22 23  2  0
 23 24  1  0
 24 25  2  0
 12  7  1  0
 25 17  1  0
 16 10  1  0
 24 19  1  0
  1 26  1  0
  1 27  1  0
  1 28  1  0
  2 29  1  0
  2 30  1  0
  3 31  1  0
  4 32  1  0
  8 33  1  0
  9 34  1  0
 12 35  1  0
 13 36  1  0
 13 37  1  0
 14 38  1  0
 14 39  1  0
 15 40  1  0
 15 41  1  0
 18 42  1  0
 20 43  1  0
 21 44  1  0
 22 45  1  0
M  END
>  <Energy>  (104) 
731.64061741126704

>  <compound_id>  (104) 
61968

>  <target_id>  (104) 
1

>  <reference_id>  (104) 
106

>  <inspiration_ids>  (104) 
[106, 91]

>  <energy_score>  (104) 
646.874439591881

>  <distance_score>  (104) 
4.967229451055064

>  <path>  (104) 
/opt/xchem-fragalysis-2/maxwin/BulkDock/SCRATCH/511021/C61968-P106/C61968-P106.minimised.mol

>  <scratch_subdir>  (104) 
/opt/xchem-fragalysis-2/maxwin/BulkDock/SCRATCH/511021/C61968-P106

>  <fragmenstein_runtime>  (104) 
17.257222175598145

>  <fragmenstein_outcome>  (104) 
too moved

>  <fragmenstein_mode>  (104) 
expansion

>  <fragmenstein_error>  (104) 


$$$$
C61970-P106
     RDKit          3D

 36 39  0  0  0  0  0  0  0  0999 V2000
    1.6662   -0.5986    9.1508 O   0  0  0  0  0  0  0  0  0  0  0  0
    1.6582   -0.4068    7.9135 C   0  0  0  0  0  0  0  0  0  0  0  0
   -0.0517   -1.1992    6.9602 N   0  0  0  0  0  0  0  0  0  0  0  0
   -1.6771   -1.9277    7.6867 C   0  0  0  0  0  0  0  0  0  0  0  0
   -2.3170   -0.7932    8.3127 C   0  0  0  0  0  0  0  0  0  0  0  0
   -3.6697   -0.3235    8.5464 C   0  0  0  0  0  0  0  0  0  0  0  0
   -4.7317   -0.9301    7.9978 C   0  0  0  0  0  0  0  0  0  0  0  0
   -4.4481   -2.1775    7.5535 C   0  0  0  0  0  0  0  0  0  0  0  0
   -3.0209   -2.6979    7.6970 C   0  0  0  0  0  0  0  0  0  0  0  0
   -5.5937   -2.9690    6.9444 C   0  0  0  0  0  0  0  0  0  0  0  0
   -6.9335   -2.2196    6.8996 C   0  0  0  0  0  0  0  0  0  0  0  0
   -6.7501   -0.7171    6.8999 C   0  0  0  0  0  0  0  0  0  0  0  0
   -5.9236   -0.2955    7.9834 O   0  0  0  0  0  0  0  0  0  0  0  0
    3.0234    0.8049    7.5141 C   0  0  0  0  0  0  0  0  0  0  0  0
    4.0759    1.6958    6.9939 C   0  0  0  0  0  0  0  0  0  0  0  0
    4.7625    2.2981    8.0498 N   0  0  0  0  0  0  0  0  0  0  0  0
    6.0443    2.8431    8.1039 C   0  0  0  0  0  0  0  0  0  0  0  0
    6.4102    3.5614    9.1762 C   0  0  0  0  0  0  0  0  0  0  0  0
    5.3389    3.7226   10.2021 C   0  0  0  0  0  0  0  0  0  0  0  0
    4.1497    3.2048   10.1685 N   0  0  0  0  0  0  0  0  0  0  0  0
    3.8728    2.4222    9.0795 C   0  0  0  0  0  0  0  0  0  0  0  0
    2.8149    1.7194    8.7595 N   0  0  0  0  0  0  0  0  0  0  0  0
   -0.0358   -0.9478    6.0389 H   0  0  0  0  0  0  0  0  0  0  0  0
   -1.7483    0.0004    8.7050 H   0  0  0  0  0  0  0  0  0  0  0  0
   -3.7838    0.6371    9.0221 H   0  0  0  0  0  0  0  0  0  0  0  0
   -3.0308   -3.7721    7.4755 H   0  0  0  0  0  0  0  0  0  0  0  0
   -5.7860   -3.8809    7.4819 H   0  0  0  0  0  0  0  0  0  0  0  0
   -5.3268   -3.3105    5.9474 H   0  0  0  0  0  0  0  0  0  0  0  0
   -7.5187   -2.4888    7.7874 H   0  0  0  0  0  0  0  0  0  0  0  0
   -7.5212   -2.5440    6.0337 H   0  0  0  0  0  0  0  0  0  0  0  0
   -6.3296   -0.3552    5.9548 H   0  0  0  0  0  0  0  0  0  0  0  0
   -7.7228   -0.2277    7.0191 H   0  0  0  0  0  0  0  0  0  0  0  0
    4.6012    1.7515    6.0475 H   0  0  0  0  0  0  0  0  0  0  0  0
    6.6878    2.6674    7.2514 H   0  0  0  0  0  0  0  0  0  0  0  0
    7.3672    4.0433    9.3006 H   0  0  0  0  0  0  0  0  0  0  0  0
    5.6095    4.3610   11.0591 H   0  0  0  0  0  0  0  0  0  0  0  0
  1  2  2  0
  2  3  1  0
  3  4  1  0
  4  5  2  0
  5  6  1  0
  6  7  2  0
  7  8  1  0
  8  9  2  0
  8 10  1  0
 10 11  1  0
 11 12  1  0
 12 13  1  0
  2 14  1  0
 14 15  2  0
 15 16  1  0
 16 17  1  0
 17 18  2  0
 18 19  1  0
 19 20  2  0
 20 21  1  0
 21 22  2  0
  9  4  1  0
 22 14  1  0
 13  7  1  0
 21 16  1  0
  3 23  1  0
  5 24  1  0
  6 25  1  0
  9 26  1  0
 10 27  1  0
 10 28  1  0
 11 29  1  0
 11 30  1  0
 12 31  1  0
 12 32  1  0
 15 33  1  0
 17 34  1  0
 18 35  1  0
 19 36  1  0
M  END
>  <Energy>  (105) 
612.06110909715972

>  <compound_id>  (105) 
61970

>  <target_id>  (105) 
1

>  <reference_id>  (105) 
106

>  <inspiration_ids>  (105) 
[106, 91]

>  <energy_score>  (105) 
512.9390750979379

>  <distance_score>  (105) 
8.58952047893687

>  <path>  (105) 
/opt/xchem-fragalysis-2/maxwin/BulkDock/SCRATCH/511021/C61970-P106/C61970-P106.minimised.mol

>  <scratch_subdir>  (105) 
/opt/xchem-fragalysis-2/maxwin/BulkDock/SCRATCH/511021/C61970-P106

>  <fragmenstein_runtime>  (105) 
9.024390935897827

>  <fragmenstein_outcome>  (105) 
too moved

>  <fragmenstein_mode>  (105) 
expansion

>  <fragmenstein_error>  (105) 


$$$$
C61971-P106
     RDKit          3D

 33 36  0  0  0  0  0  0  0  0999 V2000
    1.2527   -0.6255   12.3181 O   0  0  0  0  0  0  0  0  0  0  0  0
    1.5166   -1.2382   11.2559 C   0  0  0  0  0  0  0  0  0  0  0  0
    0.5054   -1.4768    9.8127 N   0  0  0  0  0  0  0  0  0  0  0  0
   -1.4191   -0.9225    9.3405 C   0  0  0  0  0  0  0  0  0  0  0  0
   -2.3228    0.1831    9.0512 C   0  0  0  0  0  0  0  0  0  0  0  0
   -3.7682    0.3623    8.8048 C   0  0  0  0  0  0  0  0  0  0  0  0
   -4.5842   -0.5792    8.3547 C   0  0  0  0  0  0  0  0  0  0  0  0
   -3.8992   -1.6604    8.0223 C   0  0  0  0  0  0  0  0  0  0  0  0
   -2.4416   -1.7572    8.4419 C   0  0  0  0  0  0  0  0  0  0  0  0
   -4.8736   -2.5423    7.2816 C   0  0  0  0  0  0  0  0  0  0  0  0
   -6.1327   -1.6547    7.2432 C   0  0  0  0  0  0  0  0  0  0  0  0
   -5.8573   -0.4348    7.9529 O   0  0  0  0  0  0  0  0  0  0  0  0
    3.2985   -2.1580   11.4222 C   0  0  0  0  0  0  0  0  0  0  0  0
    4.0034   -3.2045   12.1590 C   0  0  0  0  0  0  0  0  0  0  0  0
    5.5848   -2.6926   12.7066 N   0  0  0  0  0  0  0  0  0  0  0  0
    6.1653   -2.6956   14.1221 C   0  0  0  0  0  0  0  0  0  0  0  0
    7.2152   -1.9773   14.5107 C   0  0  0  0  0  0  0  0  0  0  0  0
    7.6794   -1.0445   13.5092 C   0  0  0  0  0  0  0  0  0  0  0  0
    7.1779   -0.7909   12.3473 N   0  0  0  0  0  0  0  0  0  0  0  0
    5.9331   -1.2651   12.1483 C   0  0  0  0  0  0  0  0  0  0  0  0
    4.6354   -0.8727   11.4457 N   0  0  0  0  0  0  0  0  0  0  0  0
    1.0380   -1.9446    9.0941 H   0  0  0  0  0  0  0  0  0  0  0  0
   -2.0243    1.1893    8.8031 H   0  0  0  0  0  0  0  0  0  0  0  0
   -4.0939    1.3731    8.6737 H   0  0  0  0  0  0  0  0  0  0  0  0
   -2.2197   -2.6553    7.9541 H   0  0  0  0  0  0  0  0  0  0  0  0
   -5.1277   -3.5018    7.6982 H   0  0  0  0  0  0  0  0  0  0  0  0
   -4.6014   -2.9125    6.3128 H   0  0  0  0  0  0  0  0  0  0  0  0
   -6.4204   -1.3982    6.2184 H   0  0  0  0  0  0  0  0  0  0  0  0
   -6.9954   -2.1439    7.7070 H   0  0  0  0  0  0  0  0  0  0  0  0
    3.5696   -4.0184   12.7108 H   0  0  0  0  0  0  0  0  0  0  0  0
    5.5773   -3.1656   14.8835 H   0  0  0  0  0  0  0  0  0  0  0  0
    7.6118   -1.9045   15.5012 H   0  0  0  0  0  0  0  0  0  0  0  0
    8.5642   -0.4582   13.8331 H   0  0  0  0  0  0  0  0  0  0  0  0
  1  2  2  0
  2  3  1  0
  3  4  1  0
  4  5  2  0
  5  6  1  0
  6  7  2  0
  7  8  1  0
  8  9  2  0
  8 10  1  0
 10 11  1  0
 11 12  1  0
  2 13  1  0
 13 14  2  0
 14 15  1  0
 15 16  1  0
 16 17  2  0
 17 18  1  0
 18 19  2  0
 19 20  1  0
 20 21  2  0
  9  4  1  0
 21 13  1  0
 12  7  1  0
 20 15  1  0
  3 22  1  0
  5 23  1  0
  6 24  1  0
  9 25  1  0
 10 26  1  0
 10 27  1  0
 11 28  1  0
 11 29  1  0
 14 30  1  0
 16 31  1  0
 17 32  1  0
 18 33  1  0
M  END
>  <Energy>  (106) 
651.93839194642203

>  <compound_id>  (106) 
61971

>  <target_id>  (106) 
1

>  <reference_id>  (106) 
106

>  <inspiration_ids>  (106) 
[106, 91]

>  <energy_score>  (106) 
556.9985623670947

>  <distance_score>  (106) 
6.261410603914338

>  <path>  (106) 
/opt/xchem-fragalysis-2/maxwin/BulkDock/SCRATCH/511021/C61971-P106/C61971-P106.minimised.mol

>  <scratch_subdir>  (106) 
/opt/xchem-fragalysis-2/maxwin/BulkDock/SCRATCH/511021/C61971-P106

>  <fragmenstein_runtime>  (106) 
5.74721097946167

>  <fragmenstein_outcome>  (106) 
too moved

>  <fragmenstein_mode>  (106) 
expansion

>  <fragmenstein_error>  (106) 


$$$$
C61972-P106
     RDKit          3D

 36 39  0  0  0  0  0  0  0  0999 V2000
    1.2375   -0.6125   12.3770 O   0  0  0  0  0  0  0  0  0  0  0  0
    1.5000   -1.2052   11.3024 C   0  0  0  0  0  0  0  0  0  0  0  0
    0.4797   -1.4442    9.8489 N   0  0  0  0  0  0  0  0  0  0  0  0
   -1.4368   -0.8682    9.3497 C   0  0  0  0  0  0  0  0  0  0  0  0
   -1.9465   -1.2108    8.0350 C   0  0  0  0  0  0  0  0  0  0  0  0
   -3.2545   -0.8753    7.1957 C   0  0  0  0  0  0  0  0  0  0  0  0
   -4.4523   -0.2705    7.4517 C   0  0  0  0  0  0  0  0  0  0  0  0
   -4.4657    0.0990    8.7170 C   0  0  0  0  0  0  0  0  0  0  0  0
   -3.0139   -0.2167    9.4236 C   0  0  0  0  0  0  0  0  0  0  0  0
   -5.9698   -0.2569    9.0637 C   0  0  0  0  0  0  0  0  0  0  0  0
   -6.9724    0.5627    8.2419 C   0  0  0  0  0  0  0  0  0  0  0  0
   -6.3792    0.9218    6.9035 C   0  0  0  0  0  0  0  0  0  0  0  0
   -5.3978   -0.0356    6.5172 O   0  0  0  0  0  0  0  0  0  0  0  0
    3.3099   -2.1075   11.4334 C   0  0  0  0  0  0  0  0  0  0  0  0
    4.5678   -0.8419   11.3896 C   0  0  0  0  0  0  0  0  0  0  0  0
    5.9616   -1.3717   12.2262 N   0  0  0  0  0  0  0  0  0  0  0  0
    7.1998   -0.9262   12.6560 C   0  0  0  0  0  0  0  0  0  0  0  0
    7.7076   -1.2275   13.8646 C   0  0  0  0  0  0  0  0  0  0  0  0
    8.9678   -0.4526   14.7895 Cl  0  0  0  0  0  0  0  0  0  0  0  0
    7.0009   -2.2556   14.5317 C   0  0  0  0  0  0  0  0  0  0  0  0
    6.0019   -2.9104   14.0810 N   0  0  0  0  0  0  0  0  0  0  0  0
    5.5035   -2.7702   12.7160 C   0  0  0  0  0  0  0  0  0  0  0  0
    4.1289   -3.1759   12.2584 N   0  0  0  0  0  0  0  0  0  0  0  0
    1.0167   -1.8932    9.1200 H   0  0  0  0  0  0  0  0  0  0  0  0
   -1.2858   -1.5961    7.2960 H   0  0  0  0  0  0  0  0  0  0  0  0
   -3.0390   -0.7648    6.1376 H   0  0  0  0  0  0  0  0  0  0  0  0
   -3.5850   -1.2619    9.4446 H   0  0  0  0  0  0  0  0  0  0  0  0
   -6.3502   -0.2330   10.0749 H   0  0  0  0  0  0  0  0  0  0  0  0
   -6.1186   -1.3059    8.7700 H   0  0  0  0  0  0  0  0  0  0  0  0
   -7.2805    1.4756    8.7591 H   0  0  0  0  0  0  0  0  0  0  0  0
   -7.8833   -0.0336    8.1069 H   0  0  0  0  0  0  0  0  0  0  0  0
   -7.1569    0.9499    6.1331 H   0  0  0  0  0  0  0  0  0  0  0  0
   -5.9228    1.9191    6.9272 H   0  0  0  0  0  0  0  0  0  0  0  0
    4.4306    0.1663   11.0122 H   0  0  0  0  0  0  0  0  0  0  0  0
    7.6941   -0.2528   12.0257 H   0  0  0  0  0  0  0  0  0  0  0  0
    7.3875   -2.4943   15.5147 H   0  0  0  0  0  0  0  0  0  0  0  0
  1  2  2  0
  2  3  1  0
  3  4  1  0
  4  5  2  0
  5  6  1  0
  6  7  2  0
  7  8  1  0
  8  9  2  0
  8 10  1  0
 10 11  1  0
 11 12  1  0
 12 13  1  0
  2 14  1  0
 14 15  2  0
 15 16  1  0
 16 17  1  0
 17 18  2  0
 18 19  1  0
 18 20  1  0
 20 21  2  0
 21 22  1  0
 22 23  2  0
  9  4  1  0
 23 14  1  0
 13  7  1  0
 22 16  1  0
  3 24  1  0
  5 25  1  0
  6 26  1  0
  9 27  1  0
 10 28  1  0
 10 29  1  0
 11 30  1  0
 11 31  1  0
 12 32  1  0
 12 33  1  0
 15 34  1  0
 17 35  1  0
 20 36  1  0
M  END
>  <Energy>  (107) 
803.72173266671689

>  <compound_id>  (107) 
61972

>  <target_id>  (107) 
1

>  <reference_id>  (107) 
106

>  <inspiration_ids>  (107) 
[106, 91]

>  <energy_score>  (107) 
718.4410892340854

>  <distance_score>  (107) 
6.2956087110878

>  <path>  (107) 
/opt/xchem-fragalysis-2/maxwin/BulkDock/SCRATCH/511021/C61972-P106/C61972-P106.minimised.mol

>  <scratch_subdir>  (107) 
/opt/xchem-fragalysis-2/maxwin/BulkDock/SCRATCH/511021/C61972-P106

>  <fragmenstein_runtime>  (107) 
6.366159439086914

>  <fragmenstein_outcome>  (107) 
too moved

>  <fragmenstein_mode>  (107) 
expansion

>  <fragmenstein_error>  (107) 


$$$$
C61973-P106
     RDKit          3D

 36 39  0  0  0  0  0  0  0  0999 V2000
    6.4265    6.2508   13.8197 O   0  0  0  0  0  0  0  0  0  0  0  0
    5.8484    5.3277   14.3133 C   0  0  0  0  0  0  0  0  0  0  0  0
    4.5683    4.7287   13.9834 N   0  0  0  0  0  0  0  0  0  0  0  0
    3.6371    5.0014   12.8912 C   0  0  0  0  0  0  0  0  0  0  0  0
    2.1404    4.7051   13.0359 C   0  0  0  0  0  0  0  0  0  0  0  0
    1.5986    3.6771   13.8338 C   0  0  0  0  0  0  0  0  0  0  0  0
    0.2040    3.4726   13.9321 C   0  0  0  0  0  0  0  0  0  0  0  0
   -0.6420    4.2991   13.2220 C   0  0  0  0  0  0  0  0  0  0  0  0
   -0.1393    5.2783   12.3892 C   0  0  0  0  0  0  0  0  0  0  0  0
    1.2328    5.4721   12.2634 C   0  0  0  0  0  0  0  0  0  0  0  0
   -1.2590    5.9945   11.7350 C   0  0  0  0  0  0  0  0  0  0  0  0
   -2.4017    5.5023   12.6205 C   0  0  0  0  0  0  0  0  0  0  0  0
   -2.0142    4.2585   13.2611 O   0  0  0  0  0  0  0  0  0  0  0  0
    6.5709    4.5943   15.3722 C   0  0  0  0  0  0  0  0  0  0  0  0
    6.0964    3.9994   16.5245 C   0  0  0  0  0  0  0  0  0  0  0  0
    7.0382    3.2074   17.1389 N   0  0  0  0  0  0  0  0  0  0  0  0
    8.1244    3.3253   16.4129 C   0  0  0  0  0  0  0  0  0  0  0  0
    9.3069    2.6574   16.5589 N   0  0  0  0  0  0  0  0  0  0  0  0
   10.2975    3.0904   15.8421 C   0  0  0  0  0  0  0  0  0  0  0  0
   10.2293    4.1677   14.8185 C   0  0  0  0  0  0  0  0  0  0  0  0
    9.0125    4.7012   14.6256 C   0  0  0  0  0  0  0  0  0  0  0  0
    7.9372    4.2880   15.4127 N   0  0  0  0  0  0  0  0  0  0  0  0
    4.4281    3.8990   14.5637 H   0  0  0  0  0  0  0  0  0  0  0  0
    3.7736    6.0597   12.6387 H   0  0  0  0  0  0  0  0  0  0  0  0
    4.0044    4.4208   12.0364 H   0  0  0  0  0  0  0  0  0  0  0  0
    2.2544    3.0288   14.4093 H   0  0  0  0  0  0  0  0  0  0  0  0
   -0.1920    2.6935   14.5742 H   0  0  0  0  0  0  0  0  0  0  0  0
    1.6021    6.2480   11.5965 H   0  0  0  0  0  0  0  0  0  0  0  0
   -1.1608    7.0827   11.7843 H   0  0  0  0  0  0  0  0  0  0  0  0
   -1.3770    5.6914   10.6926 H   0  0  0  0  0  0  0  0  0  0  0  0
   -2.6134    6.2259   13.4191 H   0  0  0  0  0  0  0  0  0  0  0  0
   -3.3264    5.3687   12.0530 H   0  0  0  0  0  0  0  0  0  0  0  0
    5.0828    4.0593   16.9035 H   0  0  0  0  0  0  0  0  0  0  0  0
   11.2865    2.6158   15.9572 H   0  0  0  0  0  0  0  0  0  0  0  0
   11.1192    4.4514   14.2750 H   0  0  0  0  0  0  0  0  0  0  0  0
    8.8209    5.4759   13.8923 H   0  0  0  0  0  0  0  0  0  0  0  0
  1  2  2  0
  2  3  1  0
  3  4  1  0
  4  5  1  0
  5  6  2  0
  6  7  1  0
  7  8  2  0
  8  9  1  0
  9 10  2  0
  9 11  1  0
 11 12  1  0
 12 13  1  0
  2 14  1  0
 14 15  2  0
 15 16  1  0
 16 17  2  0
 17 18  1  0
 18 19  2  0
 19 20  1  0
 20 21  2  0
 21 22  1  0
 10  5  1  0
 22 14  1  0
 13  8  1  0
 22 17  1  0
  3 23  1  0
  4 24  1  0
  4 25  1  0
  6 26  1  0
  7 27  1  0
 10 28  1  0
 11 29  1  0
 11 30  1  0
 12 31  1  0
 12 32  1  0
 15 33  1  0
 19 34  1  0
 20 35  1  0
 21 36  1  0
M  END
>  <Energy>  (108) 
12.819071125342582

>  <compound_id>  (108) 
61973

>  <target_id>  (108) 
1

>  <reference_id>  (108) 
106

>  <inspiration_ids>  (108) 
[106, 91]

>  <energy_score>  (108) 
-11.493845321332628

>  <distance_score>  (108) 
8.780826311008978

>  <path>  (108) 
/opt/xchem-fragalysis-2/maxwin/BulkDock/SCRATCH/511021/C61973-P106/C61973-P106.minimised.mol

>  <scratch_subdir>  (108) 
/opt/xchem-fragalysis-2/maxwin/BulkDock/SCRATCH/511021/C61973-P106

>  <fragmenstein_runtime>  (108) 
9.922595739364624

>  <fragmenstein_outcome>  (108) 
too moved

>  <fragmenstein_mode>  (108) 
expansion

>  <fragmenstein_error>  (108) 


$$$$
C61974-P106
     RDKit          3D

 39 42  0  0  0  0  0  0  0  0999 V2000
    2.8784    1.0910   11.5747 O   0  0  0  0  0  0  0  0  0  0  0  0
    2.9418   -0.1075   11.3286 C   0  0  0  0  0  0  0  0  0  0  0  0
    1.6585   -1.2759   10.6597 N   0  0  0  0  0  0  0  0  0  0  0  0
    0.0490   -1.0511   10.3145 C   0  0  0  0  0  0  0  0  0  0  0  0
   -1.6557   -0.9011    9.1072 C   0  0  0  0  0  0  0  0  0  0  0  0
   -2.4713    0.2307    8.9363 C   0  0  0  0  0  0  0  0  0  0  0  0
   -3.9065    0.3043    8.8795 C   0  0  0  0  0  0  0  0  0  0  0  0
   -4.6528   -0.4247    8.0279 C   0  0  0  0  0  0  0  0  0  0  0  0
   -4.0789   -1.6157    7.8005 C   0  0  0  0  0  0  0  0  0  0  0  0
   -2.6587   -1.8347    8.3904 C   0  0  0  0  0  0  0  0  0  0  0  0
   -4.9962   -2.6631    7.1483 C   0  0  0  0  0  0  0  0  0  0  0  0
   -6.4365   -2.1877    6.8674 C   0  0  0  0  0  0  0  0  0  0  0  0
   -6.8517   -1.0459    7.7679 C   0  0  0  0  0  0  0  0  0  0  0  0
   -5.8942    0.0057    7.7328 O   0  0  0  0  0  0  0  0  0  0  0  0
    4.3945   -1.0701   11.4982 C   0  0  0  0  0  0  0  0  0  0  0  0
    4.0181   -2.7078   11.8532 C   0  0  0  0  0  0  0  0  0  0  0  0
    5.1478   -3.1977   12.4962 N   0  0  0  0  0  0  0  0  0  0  0  0
    6.0804   -2.3306   13.0063 C   0  0  0  0  0  0  0  0  0  0  0  0
    6.8298   -2.4052   14.1725 N   0  0  0  0  0  0  0  0  0  0  0  0
    7.8139   -1.5798   14.2317 C   0  0  0  0  0  0  0  0  0  0  0  0
    8.0415   -0.5507   13.1488 C   0  0  0  0  0  0  0  0  0  0  0  0
    7.2293   -0.7154   12.0773 C   0  0  0  0  0  0  0  0  0  0  0  0
    5.9668   -1.1511   12.2448 N   0  0  0  0  0  0  0  0  0  0  0  0
    2.0508   -2.1829   10.4946 H   0  0  0  0  0  0  0  0  0  0  0  0
    0.6508   -0.2894    9.9057 H   0  0  0  0  0  0  0  0  0  0  0  0
   -0.2735   -0.8186   11.3552 H   0  0  0  0  0  0  0  0  0  0  0  0
   -2.1362    1.2357    8.7598 H   0  0  0  0  0  0  0  0  0  0  0  0
   -4.2545   -0.0784    9.8557 H   0  0  0  0  0  0  0  0  0  0  0  0
   -2.5839   -2.8873    8.2934 H   0  0  0  0  0  0  0  0  0  0  0  0
   -4.6068   -3.0951    6.2415 H   0  0  0  0  0  0  0  0  0  0  0  0
   -5.0590   -3.5769    7.7038 H   0  0  0  0  0  0  0  0  0  0  0  0
   -6.5100   -1.8347    5.8343 H   0  0  0  0  0  0  0  0  0  0  0  0
   -7.1368   -3.0264    6.9531 H   0  0  0  0  0  0  0  0  0  0  0  0
   -7.8093   -0.6359    7.4291 H   0  0  0  0  0  0  0  0  0  0  0  0
   -6.9952   -1.3647    8.8024 H   0  0  0  0  0  0  0  0  0  0  0  0
    3.1794   -3.3181   11.5740 H   0  0  0  0  0  0  0  0  0  0  0  0
    8.5159   -1.5566   15.0796 H   0  0  0  0  0  0  0  0  0  0  0  0
    8.9606    0.0250   13.2173 H   0  0  0  0  0  0  0  0  0  0  0  0
    7.2980   -0.4049   11.0733 H   0  0  0  0  0  0  0  0  0  0  0  0
  1  2  2  0
  2  3  1  0
  3  4  1  0
  4  5  1  0
  5  6  2  0
  6  7  1  0
  7  8  2  0
  8  9  1  0
  9 10  2  0
  9 11  1  0
 11 12  1  0
 12 13  1  0
 13 14  1  0
  2 15  1  0
 15 16  2  0
 16 17  1  0
 17 18  2  0
 18 19  1  0
 19 20  2  0
 20 21  1  0
 21 22  2  0
 22 23  1  0
 10  5  1  0
 23 15  1  0
 14  8  1  0
 23 18  1  0
  3 24  1  0
  4 25  1  0
  4 26  1  0
  6 27  1  0
  7 28  1  0
 10 29  1  0
 11 30  1  0
 11 31  1  0
 12 32  1  0
 12 33  1  0
 13 34  1  0
 13 35  1  0
 16 36  1  0
 20 37  1  0
 21 38  1  0
 22 39  1  0
M  END
>  <Energy>  (109) 
570.44426906707815

>  <compound_id>  (109) 
61974

>  <target_id>  (109) 
1

>  <reference_id>  (109) 
106

>  <inspiration_ids>  (109) 
[106, 91]

>  <energy_score>  (109) 
547.6631375582544

>  <distance_score>  (109) 
6.094675829541146

>  <path>  (109) 
/opt/xchem-fragalysis-2/maxwin/BulkDock/SCRATCH/511021/C61974-P106/C61974-P106.minimised.mol

>  <scratch_subdir>  (109) 
/opt/xchem-fragalysis-2/maxwin/BulkDock/SCRATCH/511021/C61974-P106

>  <fragmenstein_runtime>  (109) 
7.255096673965454

>  <fragmenstein_outcome>  (109) 
too moved

>  <fragmenstein_mode>  (109) 
expansion

>  <fragmenstein_error>  (109) 


$$$$
C61975-P106
     RDKit          3D

 35 38  0  0  0  0  0  0  0  0999 V2000
    3.1886    0.6040   11.2928 O   0  0  0  0  0  0  0  0  0  0  0  0
    2.7743    0.9542   10.1908 C   0  0  0  0  0  0  0  0  0  0  0  0
    1.6624    0.1923    9.5608 O   0  0  0  0  0  0  0  0  0  0  0  0
    0.2259   -0.9817   10.0585 C   0  0  0  0  0  0  0  0  0  0  0  0
   -1.6377   -0.8537    9.0884 C   0  0  0  0  0  0  0  0  0  0  0  0
   -2.5139    0.2632    8.9459 C   0  0  0  0  0  0  0  0  0  0  0  0
   -3.9434    0.3706    8.6694 C   0  0  0  0  0  0  0  0  0  0  0  0
   -4.7009   -0.6077    8.1857 C   0  0  0  0  0  0  0  0  0  0  0  0
   -4.0040   -1.7046    7.9217 C   0  0  0  0  0  0  0  0  0  0  0  0
   -2.5782   -1.8053    8.3732 C   0  0  0  0  0  0  0  0  0  0  0  0
   -4.9647   -2.6321    7.2201 C   0  0  0  0  0  0  0  0  0  0  0  0
   -6.2393   -1.7726    7.1482 C   0  0  0  0  0  0  0  0  0  0  0  0
   -5.9753   -0.5027    7.7651 O   0  0  0  0  0  0  0  0  0  0  0  0
    3.4848    2.2452    9.7484 C   0  0  0  0  0  0  0  0  0  0  0  0
    4.0254    2.3896    8.3836 C   0  0  0  0  0  0  0  0  0  0  0  0
    5.0608    3.2381    8.2629 C   0  0  0  0  0  0  0  0  0  0  0  0
    5.5111    3.9395    9.3739 N   0  0  0  0  0  0  0  0  0  0  0  0
    6.6017    4.7582    9.5289 C   0  0  0  0  0  0  0  0  0  0  0  0
    6.6080    5.1018   10.8587 C   0  0  0  0  0  0  0  0  0  0  0  0
    5.5424    4.5437   11.5099 N   0  0  0  0  0  0  0  0  0  0  0  0
    4.8694    3.8605   10.5997 C   0  0  0  0  0  0  0  0  0  0  0  0
    3.7857    3.0487   10.7485 N   0  0  0  0  0  0  0  0  0  0  0  0
    0.2096   -0.8815   11.1302 H   0  0  0  0  0  0  0  0  0  0  0  0
    0.8364   -1.8299    9.7379 H   0  0  0  0  0  0  0  0  0  0  0  0
   -2.1765    1.2803    8.8593 H   0  0  0  0  0  0  0  0  0  0  0  0
   -4.3625    1.3459    8.5424 H   0  0  0  0  0  0  0  0  0  0  0  0
   -2.3953   -2.7975    8.0855 H   0  0  0  0  0  0  0  0  0  0  0  0
   -4.6812   -3.0108    6.2537 H   0  0  0  0  0  0  0  0  0  0  0  0
   -5.1955   -3.5727    7.6838 H   0  0  0  0  0  0  0  0  0  0  0  0
   -6.5513   -1.5971    6.1133 H   0  0  0  0  0  0  0  0  0  0  0  0
   -7.0824   -2.2442    7.6636 H   0  0  0  0  0  0  0  0  0  0  0  0
    3.6137    1.8031    7.5810 H   0  0  0  0  0  0  0  0  0  0  0  0
    5.5851    3.3820    7.3269 H   0  0  0  0  0  0  0  0  0  0  0  0
    7.2595    5.0010    8.7081 H   0  0  0  0  0  0  0  0  0  0  0  0
    7.3148    5.7327   11.3811 H   0  0  0  0  0  0  0  0  0  0  0  0
  1  2  2  0
  2  3  1  0
  3  4  1  0
  4  5  1  0
  5  6  2  0
  6  7  1  0
  7  8  2  0
  8  9  1  0
  9 10  2  0
  9 11  1  0
 11 12  1  0
 12 13  1  0
  2 14  1  0
 14 15  1  0
 15 16  2  0
 16 17  1  0
 17 18  1  0
 18 19  2  0
 19 20  1  0
 20 21  2  0
 21 22  1  0
 10  5  1  0
 22 14  2  0
 13  8  1  0
 21 17  1  0
  4 23  1  0
  4 24  1  0
  6 25  1  0
  7 26  1  0
 10 27  1  0
 11 28  1  0
 11 29  1  0
 12 30  1  0
 12 31  1  0
 15 32  1  0
 16 33  1  0
 18 34  1  0
 19 35  1  0
M  END
>  <Energy>  (110) 
383.12593991681524

>  <compound_id>  (110) 
61975

>  <target_id>  (110) 
1

>  <reference_id>  (110) 
106

>  <inspiration_ids>  (110) 
[106, 91]

>  <energy_score>  (110) 
256.8856866413827

>  <distance_score>  (110) 
8.797986375937063

>  <path>  (110) 
/opt/xchem-fragalysis-2/maxwin/BulkDock/SCRATCH/511021/C61975-P106/C61975-P106.minimised.mol

>  <scratch_subdir>  (110) 
/opt/xchem-fragalysis-2/maxwin/BulkDock/SCRATCH/511021/C61975-P106

>  <fragmenstein_runtime>  (110) 
5.946353912353516

>  <fragmenstein_outcome>  (110) 
too moved

>  <fragmenstein_mode>  (110) 
expansion

>  <fragmenstein_error>  (110) 


$$$$
C61976-P106
     RDKit          3D

 39 42  0  0  0  0  0  0  0  0999 V2000
   -0.6734   -0.5139   12.3122 C   0  0  0  0  0  0  0  0  0  0  0  0
    0.0101   -1.0478   10.5643 C   0  0  0  0  0  0  0  0  0  0  0  0
    1.8869   -1.3082   10.9384 N   0  0  0  0  0  0  0  0  0  0  0  0
    3.2856   -0.0755   11.3273 C   0  0  0  0  0  0  0  0  0  0  0  0
    3.1755    1.1484   11.4369 O   0  0  0  0  0  0  0  0  0  0  0  0
    5.1908   -0.7966   11.7739 C   0  0  0  0  0  0  0  0  0  0  0  0
    5.6693   -2.4790   12.5884 C   0  0  0  0  0  0  0  0  0  0  0  0
    6.2296   -2.6594   13.7817 N   0  0  0  0  0  0  0  0  0  0  0  0
    7.2350   -1.8615   14.0325 C   0  0  0  0  0  0  0  0  0  0  0  0
    7.9059   -1.6727   15.1461 N   0  0  0  0  0  0  0  0  0  0  0  0
    8.8145   -0.7007   14.8847 C   0  0  0  0  0  0  0  0  0  0  0  0
    8.6120   -0.2120   13.6109 C   0  0  0  0  0  0  0  0  0  0  0  0
    7.5368   -1.0019   12.9902 N   0  0  0  0  0  0  0  0  0  0  0  0
    6.6511   -0.8651   11.7700 C   0  0  0  0  0  0  0  0  0  0  0  0
   -1.6271   -0.8788    9.2253 C   0  0  0  0  0  0  0  0  0  0  0  0
   -2.5055    0.2418    9.0054 C   0  0  0  0  0  0  0  0  0  0  0  0
   -3.9232    0.3757    8.6706 C   0  0  0  0  0  0  0  0  0  0  0  0
   -4.6776   -0.5834    8.1488 C   0  0  0  0  0  0  0  0  0  0  0  0
   -3.9948   -1.6974    7.9292 C   0  0  0  0  0  0  0  0  0  0  0  0
   -2.5962   -1.8291    8.4734 C   0  0  0  0  0  0  0  0  0  0  0  0
   -4.9591   -2.6233    7.2288 C   0  0  0  0  0  0  0  0  0  0  0  0
   -6.2276   -1.7552    7.1435 C   0  0  0  0  0  0  0  0  0  0  0  0
   -5.9328   -0.4571    7.6817 O   0  0  0  0  0  0  0  0  0  0  0  0
   -1.4119   -1.2151   12.7308 H   0  0  0  0  0  0  0  0  0  0  0  0
   -1.2594    0.3859   12.4393 H   0  0  0  0  0  0  0  0  0  0  0  0
    0.1724   -0.5306   13.0253 H   0  0  0  0  0  0  0  0  0  0  0  0
    0.6245   -0.3965   10.0051 H   0  0  0  0  0  0  0  0  0  0  0  0
    2.2770   -2.2510   10.8204 H   0  0  0  0  0  0  0  0  0  0  0  0
    4.8898   -3.2326   12.2565 H   0  0  0  0  0  0  0  0  0  0  0  0
    9.5646   -0.3916   15.5989 H   0  0  0  0  0  0  0  0  0  0  0  0
    9.1918    0.4990   13.0567 H   0  0  0  0  0  0  0  0  0  0  0  0
    7.1453   -0.4108   10.9570 H   0  0  0  0  0  0  0  0  0  0  0  0
   -2.1636    1.2544    8.8849 H   0  0  0  0  0  0  0  0  0  0  0  0
   -4.3194    1.3612    8.5466 H   0  0  0  0  0  0  0  0  0  0  0  0
   -2.5072   -2.8676    8.3305 H   0  0  0  0  0  0  0  0  0  0  0  0
   -4.6667   -3.0034    6.2658 H   0  0  0  0  0  0  0  0  0  0  0  0
   -5.2034   -3.5635    7.6868 H   0  0  0  0  0  0  0  0  0  0  0  0
   -6.5692   -1.6374    6.1099 H   0  0  0  0  0  0  0  0  0  0  0  0
   -7.0592   -2.1853    7.7114 H   0  0  0  0  0  0  0  0  0  0  0  0
  1  2  1  0
  2  3  1  0
  3  4  1  0
  4  5  2  0
  4  6  1  0
  6  7  1  0
  7  8  2  0
  8  9  1  0
  9 10  2  0
 10 11  1  0
 11 12  2  0
 12 13  1  0
 13 14  1  0
  2 15  1  0
 15 16  2  0
 16 17  1  0
 17 18  2  0
 18 19  1  0
 19 20  2  0
 19 21  1  0
 21 22  1  0
 22 23  1  0
 14  6  2  0
 20 15  1  0
 13  9  1  0
 23 18  1  0
  1 24  1  0
  1 25  1  0
  1 26  1  0
  2 27  1  0
  3 28  1  0
  7 29  1  0
 11 30  1  0
 12 31  1  0
 14 32  1  0
 16 33  1  0
 17 34  1  0
 20 35  1  0
 21 36  1  0
 21 37  1  0
 22 38  1  0
 22 39  1  0
M  END
>  <Energy>  (111) 
736.84310597260617

>  <compound_id>  (111) 
61976

>  <target_id>  (111) 
1

>  <reference_id>  (111) 
106

>  <inspiration_ids>  (111) 
[106, 91]

>  <energy_score>  (111) 
679.5844262148945

>  <distance_score>  (111) 
6.2359236776915035

>  <path>  (111) 
/opt/xchem-fragalysis-2/maxwin/BulkDock/SCRATCH/511021/C61976-P106/C61976-P106.minimised.mol

>  <scratch_subdir>  (111) 
/opt/xchem-fragalysis-2/maxwin/BulkDock/SCRATCH/511021/C61976-P106

>  <fragmenstein_runtime>  (111) 
11.484381198883057

>  <fragmenstein_outcome>  (111) 
too moved

>  <fragmenstein_mode>  (111) 
expansion

>  <fragmenstein_error>  (111) 


$$$$
C61977-P106
     RDKit          3D

 38 41  0  0  0  0  0  0  0  0999 V2000
    4.0887   -0.6481   11.3631 O   0  0  0  0  0  0  0  0  0  0  0  0
    3.8462   -1.8026   11.4581 C   0  0  0  0  0  0  0  0  0  0  0  0
    2.2855   -2.4541   10.7565 N   0  0  0  0  0  0  0  0  0  0  0  0
    0.6570   -1.4968    9.8938 C   0  0  0  0  0  0  0  0  0  0  0  0
   -1.3705   -1.0613    9.1427 C   0  0  0  0  0  0  0  0  0  0  0  0
   -2.2763    0.0752    8.9795 C   0  0  0  0  0  0  0  0  0  0  0  0
   -3.7202    0.2905    8.7664 C   0  0  0  0  0  0  0  0  0  0  0  0
   -4.5598   -0.6112    8.2797 C   0  0  0  0  0  0  0  0  0  0  0  0
   -3.9226   -1.7249    7.9564 C   0  0  0  0  0  0  0  0  0  0  0  0
   -2.4708   -1.9114    8.3675 C   0  0  0  0  0  0  0  0  0  0  0  0
   -4.9389   -2.5864    7.2476 C   0  0  0  0  0  0  0  0  0  0  0  0
   -6.1665   -1.6567    7.2228 C   0  0  0  0  0  0  0  0  0  0  0  0
   -5.8356   -0.4309    7.9002 O   0  0  0  0  0  0  0  0  0  0  0  0
    4.8693   -2.8647   12.3712 N   0  0  0  0  0  0  0  0  0  0  0  0
    6.2461   -2.5169   13.3522 C   0  0  0  0  0  0  0  0  0  0  0  0
    6.8253   -2.8176   14.5569 C   0  0  0  0  0  0  0  0  0  0  0  0
    8.1287   -2.3208   14.6204 N   0  0  0  0  0  0  0  0  0  0  0  0
    9.4535   -2.6399   15.0031 C   0  0  0  0  0  0  0  0  0  0  0  0
   10.4092   -1.7065   15.1586 C   0  0  0  0  0  0  0  0  0  0  0  0
    9.9286   -0.3473   14.8561 C   0  0  0  0  0  0  0  0  0  0  0  0
    8.7800   -0.0803   14.3163 N   0  0  0  0  0  0  0  0  0  0  0  0
    7.9744   -1.1564   13.9891 C   0  0  0  0  0  0  0  0  0  0  0  0
    6.9572   -1.3041   13.1091 N   0  0  0  0  0  0  0  0  0  0  0  0
    2.2902   -3.4646   10.8542 H   0  0  0  0  0  0  0  0  0  0  0  0
    1.2146   -0.5753    9.8753 H   0  0  0  0  0  0  0  0  0  0  0  0
    0.9780   -2.1267    9.0264 H   0  0  0  0  0  0  0  0  0  0  0  0
   -1.9916    1.0971    8.8254 H   0  0  0  0  0  0  0  0  0  0  0  0
   -4.0326    1.3129    8.7315 H   0  0  0  0  0  0  0  0  0  0  0  0
   -2.3994   -2.8946    7.9833 H   0  0  0  0  0  0  0  0  0  0  0  0
   -5.2110   -3.5290    7.6882 H   0  0  0  0  0  0  0  0  0  0  0  0
   -4.6854   -2.9647    6.2730 H   0  0  0  0  0  0  0  0  0  0  0  0
   -6.4711   -1.4138    6.1993 H   0  0  0  0  0  0  0  0  0  0  0  0
   -7.0319   -2.1080    7.7193 H   0  0  0  0  0  0  0  0  0  0  0  0
    4.5350   -3.8052   12.2546 H   0  0  0  0  0  0  0  0  0  0  0  0
    6.4156   -3.4552   15.2691 H   0  0  0  0  0  0  0  0  0  0  0  0
    9.7246   -3.6809   15.1036 H   0  0  0  0  0  0  0  0  0  0  0  0
   11.4439   -1.8998   15.3990 H   0  0  0  0  0  0  0  0  0  0  0  0
   10.6173    0.4750   15.1098 H   0  0  0  0  0  0  0  0  0  0  0  0
  1  2  2  0
  2  3  1  0
  3  4  1  0
  4  5  1  0
  5  6  2  0
  6  7  1  0
  7  8  2  0
  8  9  1  0
  9 10  2  0
  9 11  1  0
 11 12  1  0
 12 13  1  0
  2 14  1  0
 14 15  1  0
 15 16  2  0
 16 17  1  0
 17 18  1  0
 18 19  2  0
 19 20  1  0
 20 21  2  0
 21 22  1  0
 22 23  2  0
 10  5  1  0
 23 15  1  0
 13  8  1  0
 22 17  1  0
  3 24  1  0
  4 25  1  0
  4 26  1  0
  6 27  1  0
  7 28  1  0
 10 29  1  0
 11 30  1  0
 11 31  1  0
 12 32  1  0
 12 33  1  0
 14 34  1  0
 16 35  1  0
 18 36  1  0
 19 37  1  0
 20 38  1  0
M  END
>  <Energy>  (112) 
624.49555774620455

>  <compound_id>  (112) 
61977

>  <target_id>  (112) 
1

>  <reference_id>  (112) 
106

>  <inspiration_ids>  (112) 
[106, 91]

>  <energy_score>  (112) 
643.3756467619087

>  <distance_score>  (112) 
4.430556056198761

>  <path>  (112) 
/opt/xchem-fragalysis-2/maxwin/BulkDock/SCRATCH/511021/C61977-P106/C61977-P106.minimised.mol

>  <scratch_subdir>  (112) 
/opt/xchem-fragalysis-2/maxwin/BulkDock/SCRATCH/511021/C61977-P106

>  <fragmenstein_runtime>  (112) 
8.812424659729004

>  <fragmenstein_outcome>  (112) 
too moved

>  <fragmenstein_mode>  (112) 
expansion

>  <fragmenstein_error>  (112) 


$$$$
C61979-P106
     RDKit          3D

 36 39  0  0  0  0  0  0  0  0999 V2000
    3.3574    1.2080   11.1097 O   0  0  0  0  0  0  0  0  0  0  0  0
    3.4464   -0.0051   11.2614 C   0  0  0  0  0  0  0  0  0  0  0  0
    2.0015   -1.2186   10.9775 N   0  0  0  0  0  0  0  0  0  0  0  0
    0.2593   -0.9497   10.3117 C   0  0  0  0  0  0  0  0  0  0  0  0
   -1.5407   -0.8059    9.2046 C   0  0  0  0  0  0  0  0  0  0  0  0
   -2.0645   -1.7409    8.3081 C   0  0  0  0  0  0  0  0  0  0  0  0
   -3.3865   -2.1975    8.0178 C   0  0  0  0  0  0  0  0  0  0  0  0
   -4.4205   -1.3609    8.1290 C   0  0  0  0  0  0  0  0  0  0  0  0
   -4.1035   -0.1068    8.4921 C   0  0  0  0  0  0  0  0  0  0  0  0
   -2.7012    0.1657    8.9877 C   0  0  0  0  0  0  0  0  0  0  0  0
   -5.2979    0.6443    7.9293 C   0  0  0  0  0  0  0  0  0  0  0  0
   -6.3726   -0.4173    8.0619 C   0  0  0  0  0  0  0  0  0  0  0  0
   -5.6890   -1.6228    7.7054 O   0  0  0  0  0  0  0  0  0  0  0  0
    5.2718   -0.7226   11.7146 C   0  0  0  0  0  0  0  0  0  0  0  0
    6.0007   -1.9711   12.5289 C   0  0  0  0  0  0  0  0  0  0  0  0
    7.0935   -1.6287   13.2106 N   0  0  0  0  0  0  0  0  0  0  0  0
    7.6019   -1.9484   14.4804 C   0  0  0  0  0  0  0  0  0  0  0  0
    8.6067   -1.2169   15.0003 C   0  0  0  0  0  0  0  0  0  0  0  0
    9.1127   -0.1343   14.1103 C   0  0  0  0  0  0  0  0  0  0  0  0
    8.6548    0.1272   12.9073 N   0  0  0  0  0  0  0  0  0  0  0  0
    7.5709   -0.6660   12.4063 C   0  0  0  0  0  0  0  0  0  0  0  0
    6.7879   -0.6245   11.2828 N   0  0  0  0  0  0  0  0  0  0  0  0
    2.3412   -2.1716   11.0749 H   0  0  0  0  0  0  0  0  0  0  0  0
    0.6254   -1.8138    9.7434 H   0  0  0  0  0  0  0  0  0  0  0  0
    0.9049   -0.2338    9.8143 H   0  0  0  0  0  0  0  0  0  0  0  0
   -1.5104   -1.6965    7.3794 H   0  0  0  0  0  0  0  0  0  0  0  0
   -3.5473   -3.1734    7.5650 H   0  0  0  0  0  0  0  0  0  0  0  0
   -2.5401    1.2319    8.9857 H   0  0  0  0  0  0  0  0  0  0  0  0
   -5.1761    0.7798    6.8460 H   0  0  0  0  0  0  0  0  0  0  0  0
   -5.6323    1.5965    8.3015 H   0  0  0  0  0  0  0  0  0  0  0  0
   -6.7673   -0.5024    9.0814 H   0  0  0  0  0  0  0  0  0  0  0  0
   -7.2054   -0.2496    7.3718 H   0  0  0  0  0  0  0  0  0  0  0  0
    5.4631   -2.8882   12.7388 H   0  0  0  0  0  0  0  0  0  0  0  0
    7.1062   -2.7401   15.0038 H   0  0  0  0  0  0  0  0  0  0  0  0
    9.0824   -1.3421   15.9504 H   0  0  0  0  0  0  0  0  0  0  0  0
    9.9490    0.4630   14.5092 H   0  0  0  0  0  0  0  0  0  0  0  0
  1  2  2  0
  2  3  1  0
  3  4  1  0
  4  5  1  0
  5  6  2  0
  6  7  1  0
  7  8  2  0
  8  9  1  0
  9 10  2  0
  9 11  1  0
 11 12  1  0
 12 13  1  0
  2 14  1  0
 14 15  2  0
 15 16  1  0
 16 17  1  0
 17 18  2  0
 18 19  1  0
 19 20  2  0
 20 21  1  0
 21 22  2  0
 10  5  1  0
 22 14  1  0
 13  8  1  0
 21 16  1  0
  3 23  1  0
  4 24  1  0
  4 25  1  0
  6 26  1  0
  7 27  1  0
 10 28  1  0
 11 29  1  0
 11 30  1  0
 12 31  1  0
 12 32  1  0
 15 33  1  0
 17 34  1  0
 18 35  1  0
 19 36  1  0
M  END
>  <Energy>  (113) 
721.72611405145733

>  <compound_id>  (113) 
61979

>  <target_id>  (113) 
1

>  <reference_id>  (113) 
106

>  <inspiration_ids>  (113) 
[106, 91]

>  <energy_score>  (113) 
649.905988838678

>  <distance_score>  (113) 
5.311463192154962

>  <path>  (113) 
/opt/xchem-fragalysis-2/maxwin/BulkDock/SCRATCH/511021/C61979-P106/C61979-P106.minimised.mol

>  <scratch_subdir>  (113) 
/opt/xchem-fragalysis-2/maxwin/BulkDock/SCRATCH/511021/C61979-P106

>  <fragmenstein_runtime>  (113) 
6.259671926498413

>  <fragmenstein_outcome>  (113) 
too moved

>  <fragmenstein_mode>  (113) 
expansion

>  <fragmenstein_error>  (113) 


$$$$
C61980-P106
     RDKit          3D

 42 45  0  0  0  0  0  0  0  0999 V2000
    2.5134   -2.2228   10.9801 O   0  0  0  0  0  0  0  0  0  0  0  0
    3.0079   -3.1864   10.6354 C   0  0  0  0  0  0  0  0  0  0  0  0
    2.1375   -3.7822    8.9831 C   0  0  0  0  0  0  0  0  0  0  0  0
    0.6464   -2.3224    8.9048 C   0  0  0  0  0  0  0  0  0  0  0  0
   -1.3953   -1.7534    8.3630 C   0  0  0  0  0  0  0  0  0  0  0  0
   -2.1396   -0.5653    8.6433 C   0  0  0  0  0  0  0  0  0  0  0  0
   -3.5418   -0.1055    8.6266 C   0  0  0  0  0  0  0  0  0  0  0  0
   -4.5688   -0.7655    8.0803 C   0  0  0  0  0  0  0  0  0  0  0  0
   -4.2032   -1.9999    7.7019 C   0  0  0  0  0  0  0  0  0  0  0  0
   -2.7488   -2.4822    7.9930 C   0  0  0  0  0  0  0  0  0  0  0  0
   -5.2873   -2.8493    7.0457 C   0  0  0  0  0  0  0  0  0  0  0  0
   -6.6579   -2.1641    6.9180 C   0  0  0  0  0  0  0  0  0  0  0  0
   -6.5554   -0.6539    6.8986 C   0  0  0  0  0  0  0  0  0  0  0  0
   -5.7678   -0.1601    7.9774 O   0  0  0  0  0  0  0  0  0  0  0  0
    4.3764   -3.7309   11.4458 N   0  0  0  0  0  0  0  0  0  0  0  0
    5.3335   -3.0127   12.6789 C   0  0  0  0  0  0  0  0  0  0  0  0
    5.8264   -2.8331   14.0866 C   0  0  0  0  0  0  0  0  0  0  0  0
    7.0180   -2.1444   14.1647 N   0  0  0  0  0  0  0  0  0  0  0  0
    7.9140   -2.0684   15.1804 C   0  0  0  0  0  0  0  0  0  0  0  0
    8.9298   -1.2070   15.2649 C   0  0  0  0  0  0  0  0  0  0  0  0
    8.9134   -0.2561   14.1537 C   0  0  0  0  0  0  0  0  0  0  0  0
    8.0825   -0.3322   13.1392 N   0  0  0  0  0  0  0  0  0  0  0  0
    7.2101   -1.4123   13.0669 C   0  0  0  0  0  0  0  0  0  0  0  0
    6.4229   -1.9004   12.1736 N   0  0  0  0  0  0  0  0  0  0  0  0
    2.8081   -3.6114    8.1481 H   0  0  0  0  0  0  0  0  0  0  0  0
    1.5877   -4.7288    8.9104 H   0  0  0  0  0  0  0  0  0  0  0  0
    1.2711   -2.0038    7.9851 H   0  0  0  0  0  0  0  0  0  0  0  0
    0.8902   -1.6602    9.7850 H   0  0  0  0  0  0  0  0  0  0  0  0
   -1.7425    0.3377    8.9468 H   0  0  0  0  0  0  0  0  0  0  0  0
   -3.7116    0.9076    8.9602 H   0  0  0  0  0  0  0  0  0  0  0  0
   -2.8228   -3.5416    7.7377 H   0  0  0  0  0  0  0  0  0  0  0  0
   -4.9689   -3.2246    6.0797 H   0  0  0  0  0  0  0  0  0  0  0  0
   -5.4563   -3.7617    7.5815 H   0  0  0  0  0  0  0  0  0  0  0  0
   -7.1840   -2.5314    6.0297 H   0  0  0  0  0  0  0  0  0  0  0  0
   -7.2808   -2.4439    7.7749 H   0  0  0  0  0  0  0  0  0  0  0  0
   -6.1490   -0.2795    5.9534 H   0  0  0  0  0  0  0  0  0  0  0  0
   -7.5562   -0.2188    6.9972 H   0  0  0  0  0  0  0  0  0  0  0  0
    4.6232   -4.6232   11.0727 H   0  0  0  0  0  0  0  0  0  0  0  0
    5.3973   -3.1740   15.0065 H   0  0  0  0  0  0  0  0  0  0  0  0
    7.6911   -2.8896   15.7770 H   0  0  0  0  0  0  0  0  0  0  0  0
    9.7410   -1.1907   15.9680 H   0  0  0  0  0  0  0  0  0  0  0  0
    9.6667    0.5478   14.1920 H   0  0  0  0  0  0  0  0  0  0  0  0
  1  2  2  0
  2  3  1  0
  3  4  1  0
  4  5  1  0
  5  6  2  0
  6  7  1  0
  7  8  2  0
  8  9  1  0
  9 10  2  0
  9 11  1  0
 11 12  1  0
 12 13  1  0
 13 14  1  0
  2 15  1  0
 15 16  1  0
 16 17  2  0
 17 18  1  0
 18 19  1  0
 19 20  2  0
 20 21  1  0
 21 22  2  0
 22 23  1  0
 23 24  2  0
 10  5  1  0
 24 16  1  0
 14  8  1  0
 23 18  1  0
  3 25  1  0
  3 26  1  0
  4 27  1  0
  4 28  1  0
  6 29  1  0
  7 30  1  0
 10 31  1  0
 11 32  1  0
 11 33  1  0
 12 34  1  0
 12 35  1  0
 13 36  1  0
 13 37  1  0
 15 38  1  0
 17 39  1  0
 19 40  1  0
 20 41  1  0
 21 42  1  0
M  END
>  <Energy>  (114) 
591.20609023155873

>  <compound_id>  (114) 
61980

>  <target_id>  (114) 
1

>  <reference_id>  (114) 
106

>  <inspiration_ids>  (114) 
[106, 91]

>  <energy_score>  (114) 
537.9156638647969

>  <distance_score>  (114) 
4.9072095738889105

>  <path>  (114) 
/opt/xchem-fragalysis-2/maxwin/BulkDock/SCRATCH/511021/C61980-P106/C61980-P106.minimised.mol

>  <scratch_subdir>  (114) 
/opt/xchem-fragalysis-2/maxwin/BulkDock/SCRATCH/511021/C61980-P106

>  <fragmenstein_runtime>  (114) 
6.834434509277344

>  <fragmenstein_outcome>  (114) 
too moved

>  <fragmenstein_mode>  (114) 
expansion

>  <fragmenstein_error>  (114) 


$$$$
C61981-P106
     RDKit          3D

 39 42  0  0  0  0  0  0  0  0999 V2000
    6.1283   -0.8856   11.6491 O   0  0  0  0  0  0  0  0  0  0  0  0
    5.7421   -1.8129   12.3289 C   0  0  0  0  0  0  0  0  0  0  0  0
    4.0033   -2.7416   12.0514 N   0  0  0  0  0  0  0  0  0  0  0  0
    2.4255   -2.3685   10.7833 C   0  0  0  0  0  0  0  0  0  0  0  0
    0.5700   -1.4382   10.0782 C   0  0  0  0  0  0  0  0  0  0  0  0
   -1.3919   -1.0204    9.1849 C   0  0  0  0  0  0  0  0  0  0  0  0
   -2.3023    0.1089    9.0037 C   0  0  0  0  0  0  0  0  0  0  0  0
   -3.7422    0.3111    8.7639 C   0  0  0  0  0  0  0  0  0  0  0  0
   -4.5701   -0.6008    8.2768 C   0  0  0  0  0  0  0  0  0  0  0  0
   -3.9211   -1.7112    7.9664 C   0  0  0  0  0  0  0  0  0  0  0  0
   -2.4726   -1.8834    8.3981 C   0  0  0  0  0  0  0  0  0  0  0  0
   -4.9273   -2.5818    7.2523 C   0  0  0  0  0  0  0  0  0  0  0  0
   -6.1636   -1.6635    7.2172 C   0  0  0  0  0  0  0  0  0  0  0  0
   -5.8429   -0.4300    7.8843 O   0  0  0  0  0  0  0  0  0  0  0  0
    6.7395   -2.0509   13.5040 C   0  0  0  0  0  0  0  0  0  0  0  0
    6.4412   -2.6434   14.6682 C   0  0  0  0  0  0  0  0  0  0  0  0
    7.4782   -2.6758   15.5151 N   0  0  0  0  0  0  0  0  0  0  0  0
    8.3607   -1.8010   15.1920 C   0  0  0  0  0  0  0  0  0  0  0  0
    9.4154   -1.3447   15.9435 N   0  0  0  0  0  0  0  0  0  0  0  0
   10.1001   -0.3571   15.4756 C   0  0  0  0  0  0  0  0  0  0  0  0
    9.7781    0.3519   14.2464 C   0  0  0  0  0  0  0  0  0  0  0  0
    8.7058   -0.1519   13.6132 C   0  0  0  0  0  0  0  0  0  0  0  0
    7.9671   -1.3003   13.9991 N   0  0  0  0  0  0  0  0  0  0  0  0
    3.9328   -3.5211   12.6718 H   0  0  0  0  0  0  0  0  0  0  0  0
    2.3452   -1.3873   11.3370 H   0  0  0  0  0  0  0  0  0  0  0  0
    2.8184   -3.0845   10.0649 H   0  0  0  0  0  0  0  0  0  0  0  0
    1.1389   -0.5402    9.8895 H   0  0  0  0  0  0  0  0  0  0  0  0
    0.8673   -2.0808    9.2094 H   0  0  0  0  0  0  0  0  0  0  0  0
   -2.0130    1.1297    8.8391 H   0  0  0  0  0  0  0  0  0  0  0  0
   -4.0630    1.3297    8.7068 H   0  0  0  0  0  0  0  0  0  0  0  0
   -2.3873   -2.8650    8.0205 H   0  0  0  0  0  0  0  0  0  0  0  0
   -4.6661   -2.9599    6.2803 H   0  0  0  0  0  0  0  0  0  0  0  0
   -5.1957   -3.5267    7.6903 H   0  0  0  0  0  0  0  0  0  0  0  0
   -6.4698   -1.4323    6.1916 H   0  0  0  0  0  0  0  0  0  0  0  0
   -7.0254   -2.1175    7.7174 H   0  0  0  0  0  0  0  0  0  0  0  0
    5.4960   -3.0666   14.9352 H   0  0  0  0  0  0  0  0  0  0  0  0
   10.9801    0.0110   16.0266 H   0  0  0  0  0  0  0  0  0  0  0  0
   10.3984    1.1605   13.8940 H   0  0  0  0  0  0  0  0  0  0  0  0
    8.3901    0.1535   12.6539 H   0  0  0  0  0  0  0  0  0  0  0  0
  1  2  2  0
  2  3  1  0
  3  4  1  0
  4  5  1  0
  5  6  1  0
  6  7  2  0
  7  8  1  0
  8  9  2  0
  9 10  1  0
 10 11  2  0
 10 12  1  0
 12 13  1  0
 13 14  1  0
  2 15  1  0
 15 16  2  0
 16 17  1  0
 17 18  2  0
 18 19  1  0
 19 20  2  0
 20 21  1  0
 21 22  2  0
 22 23  1  0
 11  6  1  0
 23 15  1  0
 14  9  1  0
 23 18  1  0
  3 24  1  0
  4 25  1  0
  4 26  1  0
  5 27  1  0
  5 28  1  0
  7 29  1  0
  8 30  1  0
 11 31  1  0
 12 32  1  0
 12 33  1  0
 13 34  1  0
 13 35  1  0
 16 36  1  0
 20 37  1  0
 21 38  1  0
 22 39  1  0
M  END
>  <Energy>  (115) 
812.33116913532524

>  <compound_id>  (115) 
61981

>  <target_id>  (115) 
1

>  <reference_id>  (115) 
106

>  <inspiration_ids>  (115) 
[106, 91]

>  <energy_score>  (115) 
769.3626764920318

>  <distance_score>  (115) 
4.647037217039734

>  <path>  (115) 
/opt/xchem-fragalysis-2/maxwin/BulkDock/SCRATCH/511021/C61981-P106/C61981-P106.minimised.mol

>  <scratch_subdir>  (115) 
/opt/xchem-fragalysis-2/maxwin/BulkDock/SCRATCH/511021/C61981-P106

>  <fragmenstein_runtime>  (115) 
7.507569789886475

>  <fragmenstein_outcome>  (115) 
too moved

>  <fragmenstein_mode>  (115) 
expansion

>  <fragmenstein_error>  (115) 


$$$$
C61972-P106
     RDKit          3D

 36 39  0  0  0  0  0  0  0  0999 V2000
    1.2375   -0.6125   12.3770 O   0  0  0  0  0  0  0  0  0  0  0  0
    1.5000   -1.2052   11.3024 C   0  0  0  0  0  0  0  0  0  0  0  0
    0.4797   -1.4442    9.8489 N   0  0  0  0  0  0  0  0  0  0  0  0
   -1.4368   -0.8682    9.3497 C   0  0  0  0  0  0  0  0  0  0  0  0
   -1.9465   -1.2108    8.0350 C   0  0  0  0  0  0  0  0  0  0  0  0
   -3.2545   -0.8753    7.1957 C   0  0  0  0  0  0  0  0  0  0  0  0
   -4.4523   -0.2705    7.4517 C   0  0  0  0  0  0  0  0  0  0  0  0
   -4.4657    0.0990    8.7170 C   0  0  0  0  0  0  0  0  0  0  0  0
   -3.0139   -0.2167    9.4236 C   0  0  0  0  0  0  0  0  0  0  0  0
   -5.9698   -0.2569    9.0637 C   0  0  0  0  0  0  0  0  0  0  0  0
   -6.9724    0.5627    8.2419 C   0  0  0  0  0  0  0  0  0  0  0  0
   -6.3792    0.9218    6.9035 C   0  0  0  0  0  0  0  0  0  0  0  0
   -5.3978   -0.0356    6.5172 O   0  0  0  0  0  0  0  0  0  0  0  0
    3.3099   -2.1075   11.4334 C   0  0  0  0  0  0  0  0  0  0  0  0
    4.5678   -0.8419   11.3896 C   0  0  0  0  0  0  0  0  0  0  0  0
    5.9616   -1.3717   12.2262 N   0  0  0  0  0  0  0  0  0  0  0  0
    7.1998   -0.9262   12.6560 C   0  0  0  0  0  0  0  0  0  0  0  0
    7.7076   -1.2275   13.8646 C   0  0  0  0  0  0  0  0  0  0  0  0
    8.9678   -0.4526   14.7895 Cl  0  0  0  0  0  0  0  0  0  0  0  0
    7.0009   -2.2556   14.5317 C   0  0  0  0  0  0  0  0  0  0  0  0
    6.0019   -2.9104   14.0810 N   0  0  0  0  0  0  0  0  0  0  0  0
    5.5035   -2.7702   12.7160 C   0  0  0  0  0  0  0  0  0  0  0  0
    4.1289   -3.1759   12.2584 N   0  0  0  0  0  0  0  0  0  0  0  0
    1.0167   -1.8932    9.1200 H   0  0  0  0  0  0  0  0  0  0  0  0
   -1.2858   -1.5961    7.2960 H   0  0  0  0  0  0  0  0  0  0  0  0
   -3.0390   -0.7648    6.1376 H   0  0  0  0  0  0  0  0  0  0  0  0
   -3.5850   -1.2619    9.4446 H   0  0  0  0  0  0  0  0  0  0  0  0
   -6.3502   -0.2330   10.0749 H   0  0  0  0  0  0  0  0  0  0  0  0
   -6.1186   -1.3059    8.7700 H   0  0  0  0  0  0  0  0  0  0  0  0
   -7.2805    1.4756    8.7591 H   0  0  0  0  0  0  0  0  0  0  0  0
   -7.8833   -0.0336    8.1069 H   0  0  0  0  0  0  0  0  0  0  0  0
   -7.1569    0.9499    6.1331 H   0  0  0  0  0  0  0  0  0  0  0  0
   -5.9228    1.9191    6.9272 H   0  0  0  0  0  0  0  0  0  0  0  0
    4.4306    0.1663   11.0122 H   0  0  0  0  0  0  0  0  0  0  0  0
    7.6941   -0.2528   12.0257 H   0  0  0  0  0  0  0  0  0  0  0  0
    7.3875   -2.4943   15.5147 H   0  0  0  0  0  0  0  0  0  0  0  0
  1  2  2  0
  2  3  1  0
  3  4  1  0
  4  5  2  0
  5  6  1  0
  6  7  2  0
  7  8  1  0
  8  9  2  0
  8 10  1  0
 10 11  1  0
 11 12  1  0
 12 13  1  0
  2 14  1  0
 14 15  2  0
 15 16  1  0
 16 17  1  0
 17 18  2  0
 18 19  1  0
 18 20  1  0
 20 21  2  0
 21 22  1  0
 22 23  2  0
  9  4  1  0
 23 14  1  0
 13  7  1  0
 22 16  1  0
  3 24  1  0
  5 25  1  0
  6 26  1  0
  9 27  1  0
 10 28  1  0
 10 29  1  0
 11 30  1  0
 11 31  1  0
 12 32  1  0
 12 33  1  0
 15 34  1  0
 17 35  1  0
 20 36  1  0
M  END
>  <Energy>  (116) 
803.72173266671689

>  <compound_id>  (116) 
61972

>  <target_id>  (116) 
1

>  <reference_id>  (116) 
106

>  <inspiration_ids>  (116) 
[106, 91]

>  <energy_score>  (116) 
718.4410892340854

>  <distance_score>  (116) 
6.2956087110878

>  <path>  (116) 
/opt/xchem-fragalysis-2/maxwin/BulkDock/SCRATCH/511021/C61972-P106/C61972-P106.minimised.mol

>  <scratch_subdir>  (116) 
/opt/xchem-fragalysis-2/maxwin/BulkDock/SCRATCH/511021/C61972-P106

>  <fragmenstein_runtime>  (116) 
6.173108816146851

>  <fragmenstein_outcome>  (116) 
too moved

>  <fragmenstein_mode>  (116) 
expansion

>  <fragmenstein_error>  (116) 


$$$$
C61982-P106
     RDKit          3D

 39 42  0  0  0  0  0  0  0  0999 V2000
    2.2369   -3.9125   11.2096 C   0  0  0  0  0  0  0  0  0  0  0  0
    2.9839   -3.0963   11.8774 N   0  0  0  0  0  0  0  0  0  0  0  0
    1.7655   -2.0014   10.4418 C   0  0  0  0  0  0  0  0  0  0  0  0
   -0.1521   -1.1432   10.0296 C   0  0  0  0  0  0  0  0  0  0  0  0
   -1.7009   -0.3734    9.2811 C   0  0  0  0  0  0  0  0  0  0  0  0
   -3.2667    0.1349    9.1694 C   0  0  0  0  0  0  0  0  0  0  0  0
   -4.0840   -0.7182    8.6386 C   0  0  0  0  0  0  0  0  0  0  0  0
   -3.2559   -1.6551    8.1915 C   0  0  0  0  0  0  0  0  0  0  0  0
   -1.5475   -1.5736    8.6774 C   0  0  0  0  0  0  0  0  0  0  0  0
   -4.2157   -2.5672    7.4404 C   0  0  0  0  0  0  0  0  0  0  0  0
   -5.5595   -1.7738    7.5077 C   0  0  0  0  0  0  0  0  0  0  0  0
   -5.3640   -0.6220    8.3210 O   0  0  0  0  0  0  0  0  0  0  0  0
    4.7171   -3.1112   12.1455 C   0  0  0  0  0  0  0  0  0  0  0  0
    5.1870   -3.9224   11.5382 O   0  0  0  0  0  0  0  0  0  0  0  0
    6.1067   -2.1918   13.1209 C   0  0  0  0  0  0  0  0  0  0  0  0
    6.9283   -1.2014   12.3500 C   0  0  0  0  0  0  0  0  0  0  0  0
    7.8999   -0.5668   13.0373 C   0  0  0  0  0  0  0  0  0  0  0  0
    8.2918   -0.9728   14.3050 N   0  0  0  0  0  0  0  0  0  0  0  0
    9.3946   -0.6313   15.0446 C   0  0  0  0  0  0  0  0  0  0  0  0
    9.8717   -1.8927   15.2821 C   0  0  0  0  0  0  0  0  0  0  0  0
    8.8539   -2.8115   15.0185 N   0  0  0  0  0  0  0  0  0  0  0  0
    7.7592   -2.1474   14.7251 C   0  0  0  0  0  0  0  0  0  0  0  0
    6.4874   -2.5533   14.3416 N   0  0  0  0  0  0  0  0  0  0  0  0
    2.9684   -4.7512   11.3384 H   0  0  0  0  0  0  0  0  0  0  0  0
    2.6669   -4.0697   10.1885 H   0  0  0  0  0  0  0  0  0  0  0  0
    1.7825   -4.6599   11.9079 H   0  0  0  0  0  0  0  0  0  0  0  0
    1.8726   -1.0635   10.9614 H   0  0  0  0  0  0  0  0  0  0  0  0
    1.6252   -2.2915    9.4071 H   0  0  0  0  0  0  0  0  0  0  0  0
   -1.6482    0.3923    8.4358 H   0  0  0  0  0  0  0  0  0  0  0  0
   -3.4592    1.1854    8.9859 H   0  0  0  0  0  0  0  0  0  0  0  0
   -1.2650   -1.6119    7.5799 H   0  0  0  0  0  0  0  0  0  0  0  0
   -4.1771   -3.6000    7.7762 H   0  0  0  0  0  0  0  0  0  0  0  0
   -4.2324   -2.8375    6.4140 H   0  0  0  0  0  0  0  0  0  0  0  0
   -5.8787   -1.4032    6.5290 H   0  0  0  0  0  0  0  0  0  0  0  0
   -6.4174   -2.3541    7.8402 H   0  0  0  0  0  0  0  0  0  0  0  0
    6.7464   -0.9760   11.3191 H   0  0  0  0  0  0  0  0  0  0  0  0
    8.5687    0.1785   12.6893 H   0  0  0  0  0  0  0  0  0  0  0  0
    9.8785    0.3328   15.0095 H   0  0  0  0  0  0  0  0  0  0  0  0
   10.8589   -2.2174   15.5885 H   0  0  0  0  0  0  0  0  0  0  0  0
  1  2  1  0
  2  3  1  0
  3  4  1  0
  4  5  2  0
  5  6  1  0
  6  7  2  0
  7  8  1  0
  8  9  2  0
  8 10  1  0
 10 11  1  0
 11 12  1  0
  2 13  1  0
 13 14  2  0
 13 15  1  0
 15 16  1  0
 16 17  2  0
 17 18  1  0
 18 19  1  0
 19 20  2  0
 20 21  1  0
 21 22  2  0
 22 23  1  0
  9  4  1  0
 23 15  2  0
 12  7  1  0
 22 18  1  0
  1 24  1  0
  1 25  1  0
  1 26  1  0
  3 27  1  0
  3 28  1  0
  5 29  1  0
  6 30  1  0
  9 31  1  0
 10 32  1  0
 10 33  1  0
 11 34  1  0
 11 35  1  0
 16 36  1  0
 17 37  1  0
 19 38  1  0
 20 39  1  0
M  END
>  <Energy>  (117) 
1413.2052472001826

>  <compound_id>  (117) 
61982

>  <target_id>  (117) 
1

>  <reference_id>  (117) 
106

>  <inspiration_ids>  (117) 
[106, 91]

>  <energy_score>  (117) 
1300.7107195533301

>  <distance_score>  (117) 
5.879585963202103

>  <path>  (117) 
/opt/xchem-fragalysis-2/maxwin/BulkDock/SCRATCH/511021/C61982-P106/C61982-P106.minimised.mol

>  <scratch_subdir>  (117) 
/opt/xchem-fragalysis-2/maxwin/BulkDock/SCRATCH/511021/C61982-P106

>  <fragmenstein_runtime>  (117) 
6.380324602127075

>  <fragmenstein_outcome>  (117) 
too moved

>  <fragmenstein_mode>  (117) 
expansion

>  <fragmenstein_error>  (117) 


$$$$
C61984-P106
     RDKit          3D

 35 38  0  0  0  0  0  0  0  0999 V2000
    2.7475   -0.5279   11.6429 O   0  0  0  0  0  0  0  0  0  0  0  0
    2.7630   -1.8319   11.4171 C   0  0  0  0  0  0  0  0  0  0  0  0
    1.7833   -2.1391   10.4125 O   0  0  0  0  0  0  0  0  0  0  0  0
    0.2294   -1.1752   10.0593 C   0  0  0  0  0  0  0  0  0  0  0  0
   -1.6345   -0.9967    9.0636 C   0  0  0  0  0  0  0  0  0  0  0  0
   -2.4753    0.1499    8.9384 C   0  0  0  0  0  0  0  0  0  0  0  0
   -3.8980    0.3157    8.6720 C   0  0  0  0  0  0  0  0  0  0  0  0
   -4.6882   -0.6226    8.1608 C   0  0  0  0  0  0  0  0  0  0  0  0
   -4.0373   -1.7476    7.8963 C   0  0  0  0  0  0  0  0  0  0  0  0
   -2.6250   -1.9187    8.3606 C   0  0  0  0  0  0  0  0  0  0  0  0
   -5.0297   -2.6426    7.2002 C   0  0  0  0  0  0  0  0  0  0  0  0
   -6.2725   -1.7378    7.1358 C   0  0  0  0  0  0  0  0  0  0  0  0
   -5.9573   -0.4709    7.7387 O   0  0  0  0  0  0  0  0  0  0  0  0
    4.1083   -2.9023   12.3108 C   0  0  0  0  0  0  0  0  0  0  0  0
    5.1020   -3.6494   11.8171 C   0  0  0  0  0  0  0  0  0  0  0  0
    6.6161   -2.5535   11.6080 N   0  0  0  0  0  0  0  0  0  0  0  0
    6.5531   -1.6814   12.5387 C   0  0  0  0  0  0  0  0  0  0  0  0
    7.5378   -0.8897   13.0419 N   0  0  0  0  0  0  0  0  0  0  0  0
    8.0614   -1.2009   14.1970 C   0  0  0  0  0  0  0  0  0  0  0  0
    7.2283   -1.8868   15.1663 C   0  0  0  0  0  0  0  0  0  0  0  0
    6.2128   -2.6209   14.6268 C   0  0  0  0  0  0  0  0  0  0  0  0
    5.7427   -2.6351   13.2230 N   0  0  0  0  0  0  0  0  0  0  0  0
    0.5471   -1.9905    9.3669 H   0  0  0  0  0  0  0  0  0  0  0  0
    0.0518   -0.9960   11.0817 H   0  0  0  0  0  0  0  0  0  0  0  0
   -2.1235    1.1575    8.8726 H   0  0  0  0  0  0  0  0  0  0  0  0
   -4.2719    1.3130    8.5967 H   0  0  0  0  0  0  0  0  0  0  0  0
   -2.5149   -2.9386    8.1091 H   0  0  0  0  0  0  0  0  0  0  0  0
   -5.2923   -3.5717    7.6716 H   0  0  0  0  0  0  0  0  0  0  0  0
   -4.7496   -3.0282    6.2334 H   0  0  0  0  0  0  0  0  0  0  0  0
   -7.1231   -2.1754    7.6695 H   0  0  0  0  0  0  0  0  0  0  0  0
   -6.5913   -1.5622    6.1030 H   0  0  0  0  0  0  0  0  0  0  0  0
    4.7432   -4.4579   11.1965 H   0  0  0  0  0  0  0  0  0  0  0  0
    8.9613   -0.6895   14.5834 H   0  0  0  0  0  0  0  0  0  0  0  0
    7.1713   -1.3107   16.0699 H   0  0  0  0  0  0  0  0  0  0  0  0
    7.0363   -3.2076   14.2867 H   0  0  0  0  0  0  0  0  0  0  0  0
  1  2  2  0
  2  3  1  0
  3  4  1  0
  4  5  1  0
  5  6  2  0
  6  7  1  0
  7  8  2  0
  8  9  1  0
  9 10  2  0
  9 11  1  0
 11 12  1  0
 12 13  1  0
  2 14  1  0
 14 15  2  0
 15 16  1  0
 16 17  2  0
 17 18  1  0
 18 19  2  0
 19 20  1  0
 20 21  2  0
 21 22  1  0
 10  5  1  0
 22 14  1  0
 13  8  1  0
 22 17  1  0
  4 23  1  0
  4 24  1  0
  6 25  1  0
  7 26  1  0
 10 27  1  0
 11 28  1  0
 11 29  1  0
 12 30  1  0
 12 31  1  0
 15 32  1  0
 19 33  1  0
 20 34  1  0
 21 35  1  0
M  END
>  <Energy>  (118) 
779.16694506678698

>  <compound_id>  (118) 
61984

>  <target_id>  (118) 
1

>  <reference_id>  (118) 
106

>  <inspiration_ids>  (118) 
[106, 91]

>  <energy_score>  (118) 
732.3640248808667

>  <distance_score>  (118) 
5.792526621737486

>  <path>  (118) 
/opt/xchem-fragalysis-2/maxwin/BulkDock/SCRATCH/511021/C61984-P106/C61984-P106.minimised.mol

>  <scratch_subdir>  (118) 
/opt/xchem-fragalysis-2/maxwin/BulkDock/SCRATCH/511021/C61984-P106

>  <fragmenstein_runtime>  (118) 
6.893031597137451

>  <fragmenstein_outcome>  (118) 
too moved

>  <fragmenstein_mode>  (118) 
expansion

>  <fragmenstein_error>  (118) 


$$$$
C61986-P106
     RDKit          3D

 34 37  0  0  0  0  0  0  0  0999 V2000
    1.2935   -2.0338    9.4601 O   0  0  0  0  0  0  0  0  0  0  0  0
    0.8381   -0.9139   10.2026 S   0  0  0  0  0  0  0  0  0  0  0  0
    0.4061   -0.8079   11.5894 O   0  0  0  0  0  0  0  0  0  0  0  0
    2.9105    0.2490   10.7177 N   0  0  0  0  0  0  0  0  0  0  0  0
    4.7369   -0.3499   11.0820 C   0  0  0  0  0  0  0  0  0  0  0  0
    6.4209   -0.6017   10.7901 C   0  0  0  0  0  0  0  0  0  0  0  0
    7.3554   -0.7614   12.1119 N   0  0  0  0  0  0  0  0  0  0  0  0
    8.4184   -0.1304   13.0402 C   0  0  0  0  0  0  0  0  0  0  0  0
    8.6611   -0.5724   14.3092 C   0  0  0  0  0  0  0  0  0  0  0  0
    7.8090   -1.7231   14.6382 C   0  0  0  0  0  0  0  0  0  0  0  0
    6.7772   -2.1245   13.9681 N   0  0  0  0  0  0  0  0  0  0  0  0
    6.5257   -1.5347   12.7501 C   0  0  0  0  0  0  0  0  0  0  0  0
    5.4439   -0.9729   12.2440 N   0  0  0  0  0  0  0  0  0  0  0  0
   -1.4895   -0.7767    9.2161 C   0  0  0  0  0  0  0  0  0  0  0  0
   -1.8687   -1.7206    8.2642 C   0  0  0  0  0  0  0  0  0  0  0  0
   -3.1062   -2.3833    8.0467 C   0  0  0  0  0  0  0  0  0  0  0  0
   -4.0693   -1.6414    7.5197 C   0  0  0  0  0  0  0  0  0  0  0  0
   -3.9034   -0.3356    7.8454 C   0  0  0  0  0  0  0  0  0  0  0  0
   -2.8354    0.0291    8.9110 C   0  0  0  0  0  0  0  0  0  0  0  0
   -4.1210   -0.1316    9.8715 O   0  0  0  0  0  0  0  0  0  0  0  0
   -5.4753   -0.2128    9.1127 C   0  0  0  0  0  0  0  0  0  0  0  0
   -5.1995    0.4060    7.8217 C   0  0  0  0  0  0  0  0  0  0  0  0
    2.9524    0.9646    9.9808 H   0  0  0  0  0  0  0  0  0  0  0  0
    6.9418   -0.6042    9.8930 H   0  0  0  0  0  0  0  0  0  0  0  0
    9.0899    0.6587   12.7626 H   0  0  0  0  0  0  0  0  0  0  0  0
    9.4225   -0.2015   14.9756 H   0  0  0  0  0  0  0  0  0  0  0  0
    8.0276   -2.1985   15.5806 H   0  0  0  0  0  0  0  0  0  0  0  0
   -1.3900   -1.5438    7.3108 H   0  0  0  0  0  0  0  0  0  0  0  0
   -3.1746   -3.4452    7.8113 H   0  0  0  0  0  0  0  0  0  0  0  0
   -4.9703   -2.0837    7.1105 H   0  0  0  0  0  0  0  0  0  0  0  0
   -6.3503    0.2431    9.5879 H   0  0  0  0  0  0  0  0  0  0  0  0
   -5.7942   -1.2525    9.0237 H   0  0  0  0  0  0  0  0  0  0  0  0
   -5.8875    0.1218    7.0209 H   0  0  0  0  0  0  0  0  0  0  0  0
   -5.1445    1.4878    7.8889 H   0  0  0  0  0  0  0  0  0  0  0  0
  1  2  2  0
  2  3  2  0
  2  4  1  0
  4  5  1  0
  5  6  2  0
  6  7  1  0
  7  8  1  0
  8  9  2  0
  9 10  1  0
 10 11  2  0
 11 12  1  0
 12 13  2  0
  2 14  1  0
 14 15  2  0
 15 16  1  0
 16 17  2  0
 17 18  1  0
 18 19  2  0
 19 20  1  0
 20 21  1  0
 21 22  1  0
 13  5  1  0
 19 14  1  0
 12  7  1  0
 22 18  1  0
  4 23  1  0
  6 24  1  0
  8 25  1  0
  9 26  1  0
 10 27  1  0
 15 28  1  0
 16 29  1  0
 17 30  1  0
 21 31  1  0
 21 32  1  0
 22 33  1  0
 22 34  1  0
M  END
>  <Energy>  (119) 
938.12072795942493

>  <compound_id>  (119) 
61986

>  <target_id>  (119) 
1

>  <reference_id>  (119) 
106

>  <inspiration_ids>  (119) 
[106, 91]

>  <energy_score>  (119) 
936.4940260926772

>  <distance_score>  (119) 
5.669510634900653

>  <path>  (119) 
/opt/xchem-fragalysis-2/maxwin/BulkDock/SCRATCH/511021/C61986-P106/C61986-P106.minimised.mol

>  <scratch_subdir>  (119) 
/opt/xchem-fragalysis-2/maxwin/BulkDock/SCRATCH/511021/C61986-P106

>  <fragmenstein_runtime>  (119) 
4.949049711227417

>  <fragmenstein_outcome>  (119) 
too moved

>  <fragmenstein_mode>  (119) 
expansion

>  <fragmenstein_error>  (119) 


$$$$
C61987-P106
     RDKit          3D

 36 39  0  0  0  0  0  0  0  0999 V2000
   -1.7094   -0.7792    8.0791 O   0  0  0  0  0  0  0  0  0  0  0  0
   -2.0546   -0.8928    9.2211 C   0  0  0  0  0  0  0  0  0  0  0  0
   -0.8015   -1.1892   10.6566 N   0  0  0  0  0  0  0  0  0  0  0  0
    1.0360   -1.2250   10.6408 C   0  0  0  0  0  0  0  0  0  0  0  0
    2.6157   -0.8063   11.5115 C   0  0  0  0  0  0  0  0  0  0  0  0
    3.3335   -2.6332   11.5562 C   0  0  0  0  0  0  0  0  0  0  0  0
    4.3332   -3.2984   12.1163 N   0  0  0  0  0  0  0  0  0  0  0  0
    5.5364   -2.6203   12.5563 C   0  0  0  0  0  0  0  0  0  0  0  0
    6.2229   -2.5854   13.7272 N   0  0  0  0  0  0  0  0  0  0  0  0
    7.2136   -1.7414   13.4500 C   0  0  0  0  0  0  0  0  0  0  0  0
    6.9764   -1.0031   12.2936 C   0  0  0  0  0  0  0  0  0  0  0  0
    5.6113   -0.9923   12.0254 N   0  0  0  0  0  0  0  0  0  0  0  0
    4.1765   -0.2327   11.2292 C   0  0  0  0  0  0  0  0  0  0  0  0
   -3.9165   -0.8889    9.2947 C   0  0  0  0  0  0  0  0  0  0  0  0
   -3.9959   -1.6008    8.1454 C   0  0  0  0  0  0  0  0  0  0  0  0
   -4.1854   -0.7871    7.0392 C   0  0  0  0  0  0  0  0  0  0  0  0
   -5.1195    0.2001    6.8084 C   0  0  0  0  0  0  0  0  0  0  0  0
   -5.6098    0.6265    7.9446 C   0  0  0  0  0  0  0  0  0  0  0  0
   -5.1404   -0.0548    9.0887 C   0  0  0  0  0  0  0  0  0  0  0  0
   -6.6266   -0.4259    9.5243 C   0  0  0  0  0  0  0  0  0  0  0  0
   -7.5594    0.5741    8.8481 C   0  0  0  0  0  0  0  0  0  0  0  0
   -6.7708    1.3259    7.9426 O   0  0  0  0  0  0  0  0  0  0  0  0
   -1.3016   -1.1697   11.5507 H   0  0  0  0  0  0  0  0  0  0  0  0
    1.2932   -0.6117    9.8148 H   0  0  0  0  0  0  0  0  0  0  0  0
    0.7672   -0.8595   11.6564 H   0  0  0  0  0  0  0  0  0  0  0  0
    2.7340   -3.2764   10.9082 H   0  0  0  0  0  0  0  0  0  0  0  0
    8.0662   -1.7049   14.1182 H   0  0  0  0  0  0  0  0  0  0  0  0
    7.6346   -0.3945   11.7579 H   0  0  0  0  0  0  0  0  0  0  0  0
    4.2711    0.6935   10.6628 H   0  0  0  0  0  0  0  0  0  0  0  0
   -3.3003   -2.4303    7.9965 H   0  0  0  0  0  0  0  0  0  0  0  0
   -3.3178   -0.7325    6.3854 H   0  0  0  0  0  0  0  0  0  0  0  0
   -5.3276    0.6694    5.8623 H   0  0  0  0  0  0  0  0  0  0  0  0
   -6.8313   -0.3756   10.5928 H   0  0  0  0  0  0  0  0  0  0  0  0
   -6.8585   -1.4075    9.1039 H   0  0  0  0  0  0  0  0  0  0  0  0
   -8.3579    0.0596    8.2996 H   0  0  0  0  0  0  0  0  0  0  0  0
   -8.0478    1.2450    9.5576 H   0  0  0  0  0  0  0  0  0  0  0  0
  1  2  2  0
  2  3  1  0
  3  4  1  0
  4  5  1  0
  5  6  1  0
  6  7  2  0
  7  8  1  0
  8  9  2  0
  9 10  1  0
 10 11  2  0
 11 12  1  0
 12 13  1  0
  2 14  1  0
 14 15  2  0
 15 16  1  0
 16 17  2  0
 17 18  1  0
 18 19  2  0
 19 20  1  0
 20 21  1  0
 21 22  1  0
 13  5  2  0
 19 14  1  0
 12  8  1  0
 22 18  1  0
  3 23  1  0
  4 24  1  0
  4 25  1  0
  6 26  1  0
 10 27  1  0
 11 28  1  0
 13 29  1  0
 15 30  1  0
 16 31  1  0
 17 32  1  0
 20 33  1  0
 20 34  1  0
 21 35  1  0
 21 36  1  0
M  END
>  <Energy>  (120) 
718.02974181203001

>  <compound_id>  (120) 
61987

>  <target_id>  (120) 
1

>  <reference_id>  (120) 
106

>  <inspiration_ids>  (120) 
[106, 91]

>  <energy_score>  (120) 
658.4426139325044

>  <distance_score>  (120) 
7.307569972650884

>  <path>  (120) 
/opt/xchem-fragalysis-2/maxwin/BulkDock/SCRATCH/511021/C61987-P106/C61987-P106.minimised.mol

>  <scratch_subdir>  (120) 
/opt/xchem-fragalysis-2/maxwin/BulkDock/SCRATCH/511021/C61987-P106

>  <fragmenstein_runtime>  (120) 
9.199339151382446

>  <fragmenstein_outcome>  (120) 
too moved

>  <fragmenstein_mode>  (120) 
expansion

>  <fragmenstein_error>  (120) 


$$$$
C61988-P106
     RDKit          3D

 40 42  0  0  0  0  0  0  0  0999 V2000
    1.6073   -2.5834    8.9921 O   0  0  0  0  0  0  0  0  0  0  0  0
    1.5320   -1.9953   10.0349 C   0  0  0  0  0  0  0  0  0  0  0  0
    0.0893   -1.1207   10.3555 N   0  0  0  0  0  0  0  0  0  0  0  0
   -1.5926   -0.8222    9.2641 C   0  0  0  0  0  0  0  0  0  0  0  0
   -3.0353   -1.3158    8.5933 C   0  0  0  0  0  0  0  0  0  0  0  0
   -4.2234   -0.3645    8.8296 C   0  0  0  0  0  0  0  0  0  0  0  0
   -5.2863   -0.1689    7.7396 C   0  0  0  0  0  0  0  0  0  0  0  0
   -6.3998   -1.0983    7.6886 N   0  0  0  0  0  0  0  0  0  0  0  0
   -7.6620   -0.6642    8.0603 C   0  0  0  0  0  0  0  0  0  0  0  0
   -8.7409   -1.4310    7.8668 C   0  0  0  0  0  0  0  0  0  0  0  0
   -8.6101   -2.7184    7.2393 C   0  0  0  0  0  0  0  0  0  0  0  0
   -7.4101   -3.1758    6.8697 C   0  0  0  0  0  0  0  0  0  0  0  0
   -6.1994   -2.3581    7.1321 C   0  0  0  0  0  0  0  0  0  0  0  0
   -5.1005   -2.8361    6.8737 O   0  0  0  0  0  0  0  0  0  0  0  0
    3.1231   -2.3505   11.2462 C   0  0  0  0  0  0  0  0  0  0  0  0
    3.9111   -3.3402   12.0008 C   0  0  0  0  0  0  0  0  0  0  0  0
    5.4407   -2.7976   12.6445 N   0  0  0  0  0  0  0  0  0  0  0  0
    6.0391   -2.7784   14.1076 C   0  0  0  0  0  0  0  0  0  0  0  0
    7.1733   -2.1870   14.4616 C   0  0  0  0  0  0  0  0  0  0  0  0
    7.6541   -1.2787   13.4575 C   0  0  0  0  0  0  0  0  0  0  0  0
    7.0623   -0.8479   12.3937 N   0  0  0  0  0  0  0  0  0  0  0  0
    5.8138   -1.2947   12.1535 C   0  0  0  0  0  0  0  0  0  0  0  0
    4.4308   -0.9909   11.4266 N   0  0  0  0  0  0  0  0  0  0  0  0
    0.1531   -0.7624   11.2955 H   0  0  0  0  0  0  0  0  0  0  0  0
   -1.3260   -1.4124    8.3842 H   0  0  0  0  0  0  0  0  0  0  0  0
   -1.7832    0.2115    8.9937 H   0  0  0  0  0  0  0  0  0  0  0  0
   -3.1961   -2.3767    8.6662 H   0  0  0  0  0  0  0  0  0  0  0  0
   -2.8976   -1.1602    7.5194 H   0  0  0  0  0  0  0  0  0  0  0  0
   -3.7866    0.6260    8.9619 H   0  0  0  0  0  0  0  0  0  0  0  0
   -4.6946   -0.6002    9.7578 H   0  0  0  0  0  0  0  0  0  0  0  0
   -4.8227   -0.1605    6.7558 H   0  0  0  0  0  0  0  0  0  0  0  0
   -5.7020    0.8405    7.8597 H   0  0  0  0  0  0  0  0  0  0  0  0
   -7.7489    0.3157    8.5198 H   0  0  0  0  0  0  0  0  0  0  0  0
   -9.7300   -1.1104    8.1792 H   0  0  0  0  0  0  0  0  0  0  0  0
   -9.5084   -3.3080    7.0931 H   0  0  0  0  0  0  0  0  0  0  0  0
   -7.2639   -4.1439    6.4091 H   0  0  0  0  0  0  0  0  0  0  0  0
    3.7622   -4.3900   12.1857 H   0  0  0  0  0  0  0  0  0  0  0  0
    5.4200   -3.1742   14.8918 H   0  0  0  0  0  0  0  0  0  0  0  0
    7.5988   -2.1371   15.4416 H   0  0  0  0  0  0  0  0  0  0  0  0
    8.5194   -0.6734   13.8185 H   0  0  0  0  0  0  0  0  0  0  0  0
  1  2  2  0
  2  3  1  0
  3  4  1  0
  4  5  1  0
  5  6  1  0
  6  7  1  0
  7  8  1  0
  8  9  1  0
  9 10  2  0
 10 11  1  0
 11 12  2  0
 12 13  1  0
 13 14  2  0
  2 15  1  0
 15 16  2  0
 16 17  1  0
 17 18  1  0
 18 19  2  0
 19 20  1  0
 20 21  2  0
 21 22  1  0
 22 23  2  0
 13  8  1  0
 23 15  1  0
 22 17  1  0
  3 24  1  0
  4 25  1  0
  4 26  1  0
  5 27  1  0
  5 28  1  0
  6 29  1  0
  6 30  1  0
  7 31  1  0
  7 32  1  0
  9 33  1  0
 10 34  1  0
 11 35  1  0
 12 36  1  0
 16 37  1  0
 18 38  1  0
 19 39  1  0
 20 40  1  0
M  END
>  <Energy>  (121) 
564.28451701404833

>  <compound_id>  (121) 
61988

>  <target_id>  (121) 
1

>  <reference_id>  (121) 
106

>  <inspiration_ids>  (121) 
[106, 91]

>  <energy_score>  (121) 
493.2599495404105

>  <distance_score>  (121) 
6.497462349147979

>  <path>  (121) 
/opt/xchem-fragalysis-2/maxwin/BulkDock/SCRATCH/511021/C61988-P106/C61988-P106.minimised.mol

>  <scratch_subdir>  (121) 
/opt/xchem-fragalysis-2/maxwin/BulkDock/SCRATCH/511021/C61988-P106

>  <fragmenstein_runtime>  (121) 
8.277966022491455

>  <fragmenstein_outcome>  (121) 
too moved

>  <fragmenstein_mode>  (121) 
expansion

>  <fragmenstein_error>  (121) 


$$$$
C61989-P106
     RDKit          3D

 33 36  0  0  0  0  0  0  0  0999 V2000
    1.7021   -0.4339   12.4694 O   0  0  0  0  0  0  0  0  0  0  0  0
    2.1568   -0.7925   11.3587 C   0  0  0  0  0  0  0  0  0  0  0  0
    0.9158   -1.1350    9.8402 N   0  0  0  0  0  0  0  0  0  0  0  0
   -1.1618   -0.9005    9.5267 C   0  0  0  0  0  0  0  0  0  0  0  0
   -1.7786   -1.6344    8.3342 C   0  0  0  0  0  0  0  0  0  0  0  0
   -2.9815   -2.4586    8.0556 C   0  0  0  0  0  0  0  0  0  0  0  0
   -4.1647   -1.9180    7.9648 C   0  0  0  0  0  0  0  0  0  0  0  0
   -4.0936   -0.8440    8.7253 C   0  0  0  0  0  0  0  0  0  0  0  0
   -2.6900   -0.1804    9.1758 C   0  0  0  0  0  0  0  0  0  0  0  0
   -3.2412    1.1368    8.8886 O   0  0  0  0  0  0  0  0  0  0  0  0
   -4.7165    0.9804    8.2216 C   0  0  0  0  0  0  0  0  0  0  0  0
   -5.4042   -0.1689    8.7513 C   0  0  0  0  0  0  0  0  0  0  0  0
    4.2809   -0.7516   11.3642 C   0  0  0  0  0  0  0  0  0  0  0  0
    6.0145   -0.6657   10.9612 C   0  0  0  0  0  0  0  0  0  0  0  0
    7.2126   -0.9299   12.1675 N   0  0  0  0  0  0  0  0  0  0  0  0
    8.2793   -0.2365   13.0250 C   0  0  0  0  0  0  0  0  0  0  0  0
    8.6019   -0.6439   14.2858 C   0  0  0  0  0  0  0  0  0  0  0  0
    9.7747    0.0234   15.3194 Cl  0  0  0  0  0  0  0  0  0  0  0  0
    7.7886   -1.7807   14.7111 C   0  0  0  0  0  0  0  0  0  0  0  0
    6.7593   -2.2645   14.0961 N   0  0  0  0  0  0  0  0  0  0  0  0
    6.4376   -1.7282   12.8747 C   0  0  0  0  0  0  0  0  0  0  0  0
    5.5813   -0.7439   12.5568 N   0  0  0  0  0  0  0  0  0  0  0  0
    1.4323   -1.4841    9.0734 H   0  0  0  0  0  0  0  0  0  0  0  0
   -1.3015   -1.4882    7.3753 H   0  0  0  0  0  0  0  0  0  0  0  0
   -2.9471   -3.4363    7.5855 H   0  0  0  0  0  0  0  0  0  0  0  0
   -5.0344   -2.3707    7.5166 H   0  0  0  0  0  0  0  0  0  0  0  0
   -5.2442    1.9399    8.1340 H   0  0  0  0  0  0  0  0  0  0  0  0
   -4.7059    0.6770    7.1551 H   0  0  0  0  0  0  0  0  0  0  0  0
   -6.1416   -0.5338    8.0212 H   0  0  0  0  0  0  0  0  0  0  0  0
   -5.9440   -0.1850    9.6765 H   0  0  0  0  0  0  0  0  0  0  0  0
    6.6130   -0.3306   10.1462 H   0  0  0  0  0  0  0  0  0  0  0  0
    8.8864    0.5731   12.7055 H   0  0  0  0  0  0  0  0  0  0  0  0
    8.0336   -2.1788   15.6771 H   0  0  0  0  0  0  0  0  0  0  0  0
  1  2  2  0
  2  3  1  0
  3  4  1  0
  4  5  2  0
  5  6  1  0
  6  7  2  0
  7  8  1  0
  8  9  2  0
  9 10  1  0
 10 11  1  0
 11 12  1  0
  2 13  1  0
 13 14  2  0
 14 15  1  0
 15 16  1  0
 16 17  2  0
 17 18  1  0
 17 19  1  0
 19 20  2  0
 20 21  1  0
 21 22  2  0
  9  4  1  0
 22 13  1  0
 12  8  1  0
 21 15  1  0
  3 23  1  0
  5 24  1  0
  6 25  1  0
  7 26  1  0
 11 27  1  0
 11 28  1  0
 12 29  1  0
 12 30  1  0
 14 31  1  0
 16 32  1  0
 19 33  1  0
M  END
>  <Energy>  (122) 
1241.2382132099503

>  <compound_id>  (122) 
61989

>  <target_id>  (122) 
1

>  <reference_id>  (122) 
106

>  <inspiration_ids>  (122) 
[106, 91]

>  <energy_score>  (122) 
1118.02346025202

>  <distance_score>  (122) 
5.7044170236017955

>  <path>  (122) 
/opt/xchem-fragalysis-2/maxwin/BulkDock/SCRATCH/511021/C61989-P106/C61989-P106.minimised.mol

>  <scratch_subdir>  (122) 
/opt/xchem-fragalysis-2/maxwin/BulkDock/SCRATCH/511021/C61989-P106

>  <fragmenstein_runtime>  (122) 
3.725872039794922

>  <fragmenstein_outcome>  (122) 
too moved

>  <fragmenstein_mode>  (122) 
expansion

>  <fragmenstein_error>  (122) 


$$$$
C61990-P106
     RDKit          3D

 35 38  0  0  0  0  0  0  0  0999 V2000
    2.7222    1.1609   10.2278 O   0  0  0  0  0  0  0  0  0  0  0  0
    2.4954   -0.0204   10.5091 C   0  0  0  0  0  0  0  0  0  0  0  0
    3.8548   -1.1949   11.4791 N   0  0  0  0  0  0  0  0  0  0  0  0
    5.5875   -0.9031   12.0030 C   0  0  0  0  0  0  0  0  0  0  0  0
    7.0154   -0.6229   11.6619 C   0  0  0  0  0  0  0  0  0  0  0  0
    8.1976   -0.2427   12.2932 N   0  0  0  0  0  0  0  0  0  0  0  0
    8.3101   -0.5584   13.6153 C   0  0  0  0  0  0  0  0  0  0  0  0
    9.0974   -0.2203   14.5949 N   0  0  0  0  0  0  0  0  0  0  0  0
    9.0238   -1.3185   15.3760 C   0  0  0  0  0  0  0  0  0  0  0  0
    7.9802   -2.1499   15.0027 C   0  0  0  0  0  0  0  0  0  0  0  0
    7.4976   -1.6548   13.8429 N   0  0  0  0  0  0  0  0  0  0  0  0
    6.3195   -1.9021   12.9876 C   0  0  0  0  0  0  0  0  0  0  0  0
    0.7797   -1.1314   10.2796 N   0  0  0  0  0  0  0  0  0  0  0  0
   -1.1214   -0.7762    9.4038 C   0  0  0  0  0  0  0  0  0  0  0  0
   -1.8678   -1.6583    8.6216 C   0  0  0  0  0  0  0  0  0  0  0  0
   -2.2030   -1.2755    7.4470 C   0  0  0  0  0  0  0  0  0  0  0  0
   -3.3971   -0.7367    7.2952 C   0  0  0  0  0  0  0  0  0  0  0  0
   -3.5614    0.1648    8.2624 C   0  0  0  0  0  0  0  0  0  0  0  0
   -2.5867    0.1375    9.2997 C   0  0  0  0  0  0  0  0  0  0  0  0
   -4.2345   -0.5110    9.8131 C   0  0  0  0  0  0  0  0  0  0  0  0
   -5.4369   -0.1303    8.9194 C   0  0  0  0  0  0  0  0  0  0  0  0
   -4.7550    0.8517    8.2141 O   0  0  0  0  0  0  0  0  0  0  0  0
    3.4960   -2.1710   11.5366 H   0  0  0  0  0  0  0  0  0  0  0  0
    6.8046   -0.0829   12.5328 H   0  0  0  0  0  0  0  0  0  0  0  0
    9.7677   -1.4498   16.1390 H   0  0  0  0  0  0  0  0  0  0  0  0
    7.5840   -3.0551   15.3810 H   0  0  0  0  0  0  0  0  0  0  0  0
    5.8331   -2.7503   13.4362 H   0  0  0  0  0  0  0  0  0  0  0  0
    0.9439   -2.0249   10.5119 H   0  0  0  0  0  0  0  0  0  0  0  0
   -2.6769   -2.2864    8.9771 H   0  0  0  0  0  0  0  0  0  0  0  0
   -1.4070   -1.6199    6.8282 H   0  0  0  0  0  0  0  0  0  0  0  0
   -3.9547   -0.4552    6.4436 H   0  0  0  0  0  0  0  0  0  0  0  0
   -4.2083   -1.5530    9.5674 H   0  0  0  0  0  0  0  0  0  0  0  0
   -4.3405   -0.3773   10.8854 H   0  0  0  0  0  0  0  0  0  0  0  0
   -5.7757   -0.9505    8.2654 H   0  0  0  0  0  0  0  0  0  0  0  0
   -6.3525    0.2287    9.3965 H   0  0  0  0  0  0  0  0  0  0  0  0
  1  2  2  0
  2  3  1  0
  3  4  1  0
  4  5  1  0
  5  6  2  0
  6  7  1  0
  7  8  2  0
  8  9  1  0
  9 10  2  0
 10 11  1  0
 11 12  1  0
  2 13  1  0
 13 14  1  0
 14 15  2  0
 15 16  1  0
 16 17  2  0
 17 18  1  0
 18 19  2  0
 19 20  1  0
 20 21  1  0
 21 22  1  0
 12  4  2  0
 19 14  1  0
 11  7  1  0
 22 18  1  0
  3 23  1  0
  5 24  1  0
  9 25  1  0
 10 26  1  0
 12 27  1  0
 13 28  1  0
 15 29  1  0
 16 30  1  0
 17 31  1  0
 20 32  1  0
 20 33  1  0
 21 34  1  0
 21 35  1  0
M  END
>  <Energy>  (123) 
1160.9200134447431

>  <compound_id>  (123) 
61990

>  <target_id>  (123) 
1

>  <reference_id>  (123) 
106

>  <inspiration_ids>  (123) 
[106, 91]

>  <energy_score>  (123) 
1106.2298010692157

>  <distance_score>  (123) 
5.653774028571113

>  <path>  (123) 
/opt/xchem-fragalysis-2/maxwin/BulkDock/SCRATCH/511021/C61990-P106/C61990-P106.minimised.mol

>  <scratch_subdir>  (123) 
/opt/xchem-fragalysis-2/maxwin/BulkDock/SCRATCH/511021/C61990-P106

>  <fragmenstein_runtime>  (123) 
5.78243088722229

>  <fragmenstein_outcome>  (123) 
too moved

>  <fragmenstein_mode>  (123) 
expansion

>  <fragmenstein_error>  (123) 


$$$$
C61991-P106
     RDKit          3D

 37 40  0  0  0  0  0  0  0  0999 V2000
    5.4501    1.5210    9.4229 O   0  0  0  0  0  0  0  0  0  0  0  0
    4.5681    0.9616   10.0548 C   0  0  0  0  0  0  0  0  0  0  0  0
    4.6691   -0.2475   11.2376 N   0  0  0  0  0  0  0  0  0  0  0  0
    6.0818   -0.9775   12.0246 C   0  0  0  0  0  0  0  0  0  0  0  0
    7.3865   -0.6039   11.6950 C   0  0  0  0  0  0  0  0  0  0  0  0
    8.3247   -0.0586   12.4509 N   0  0  0  0  0  0  0  0  0  0  0  0
    8.4072   -0.4747   13.7241 C   0  0  0  0  0  0  0  0  0  0  0  0
    9.2183   -0.1923   14.7050 N   0  0  0  0  0  0  0  0  0  0  0  0
    9.1741   -1.3321   15.4258 C   0  0  0  0  0  0  0  0  0  0  0  0
    8.1018   -2.1249   15.0581 C   0  0  0  0  0  0  0  0  0  0  0  0
    7.6212   -1.5947   13.9195 N   0  0  0  0  0  0  0  0  0  0  0  0
    6.4768   -1.8371   13.0761 C   0  0  0  0  0  0  0  0  0  0  0  0
    3.1895    1.5810    9.7721 C   0  0  0  0  0  0  0  0  0  0  0  0
    3.2086    2.3676   11.0024 O   0  0  0  0  0  0  0  0  0  0  0  0
    2.9622    2.5646    8.6159 C   0  0  0  0  0  0  0  0  0  0  0  0
    3.6579    2.4397    7.4078 C   0  0  0  0  0  0  0  0  0  0  0  0
    3.3840    3.2744    6.3082 C   0  0  0  0  0  0  0  0  0  0  0  0
    2.3357    4.1905    6.3293 C   0  0  0  0  0  0  0  0  0  0  0  0
    1.6416    4.3304    7.5043 C   0  0  0  0  0  0  0  0  0  0  0  0
    1.9839    3.5755    8.6270 C   0  0  0  0  0  0  0  0  0  0  0  0
    1.1620    3.9026    9.6833 O   0  0  0  0  0  0  0  0  0  0  0  0
    0.5469    5.1538    9.2977 C   0  0  0  0  0  0  0  0  0  0  0  0
    0.4514    5.1685    7.7845 C   0  0  0  0  0  0  0  0  0  0  0  0
    3.7615   -0.5398   11.4933 H   0  0  0  0  0  0  0  0  0  0  0  0
    7.3430   -0.6836   10.6176 H   0  0  0  0  0  0  0  0  0  0  0  0
    9.9529   -1.5178   16.1442 H   0  0  0  0  0  0  0  0  0  0  0  0
    7.6995   -3.0505   15.3824 H   0  0  0  0  0  0  0  0  0  0  0  0
    5.9242   -2.6010   13.5964 H   0  0  0  0  0  0  0  0  0  0  0  0
    2.3793    0.8914    9.7952 H   0  0  0  0  0  0  0  0  0  0  0  0
    3.8060    3.1193   10.8300 H   0  0  0  0  0  0  0  0  0  0  0  0
    4.4381    1.6909    7.2841 H   0  0  0  0  0  0  0  0  0  0  0  0
    3.9607    3.1521    5.3926 H   0  0  0  0  0  0  0  0  0  0  0  0
    2.0842    4.7625    5.4428 H   0  0  0  0  0  0  0  0  0  0  0  0
   -0.4292    5.2715    9.7729 H   0  0  0  0  0  0  0  0  0  0  0  0
    1.1888    5.9659    9.6656 H   0  0  0  0  0  0  0  0  0  0  0  0
   -0.4573    4.6720    7.4377 H   0  0  0  0  0  0  0  0  0  0  0  0
    0.5129    6.1807    7.3779 H   0  0  0  0  0  0  0  0  0  0  0  0
  1  2  2  0
  2  3  1  0
  3  4  1  0
  4  5  1  0
  5  6  2  0
  6  7  1  0
  7  8  2  0
  8  9  1  0
  9 10  2  0
 10 11  1  0
 11 12  1  0
  2 13  1  0
 13 14  1  0
 13 15  1  0
 15 16  2  0
 16 17  1  0
 17 18  2  0
 18 19  1  0
 19 20  2  0
 20 21  1  0
 21 22  1  0
 22 23  1  0
 12  4  2  0
 20 15  1  0
 11  7  1  0
 23 19  1  0
  3 24  1  0
  5 25  1  0
  9 26  1  0
 10 27  1  0
 12 28  1  0
 13 29  1  0
 14 30  1  0
 16 31  1  0
 17 32  1  0
 18 33  1  0
 22 34  1  0
 22 35  1  0
 23 36  1  0
 23 37  1  0
M  END
>  <Energy>  (124) 
275.1964434487785

>  <compound_id>  (124) 
61991

>  <target_id>  (124) 
1

>  <reference_id>  (124) 
106

>  <inspiration_ids>  (124) 
[106, 91]

>  <energy_score>  (124) 
126.86351647484878

>  <distance_score>  (124) 
8.52647117199705

>  <path>  (124) 
/opt/xchem-fragalysis-2/maxwin/BulkDock/SCRATCH/511021/C61991-P106/C61991-P106.minimised.mol

>  <scratch_subdir>  (124) 
/opt/xchem-fragalysis-2/maxwin/BulkDock/SCRATCH/511021/C61991-P106

>  <fragmenstein_runtime>  (124) 
8.19361400604248

>  <fragmenstein_outcome>  (124) 
too moved

>  <fragmenstein_mode>  (124) 
expansion

>  <fragmenstein_error>  (124) 


$$$$
C61992-P106
     RDKit          3D

 33 36  0  0  0  0  0  0  0  0999 V2000
    1.4885   -0.6987   11.9989 O   0  0  0  0  0  0  0  0  0  0  0  0
    1.4898   -1.3967   11.0305 C   0  0  0  0  0  0  0  0  0  0  0  0
    3.0473   -2.6366   11.0772 N   0  0  0  0  0  0  0  0  0  0  0  0
    4.5520   -2.8090   12.2625 C   0  0  0  0  0  0  0  0  0  0  0  0
    5.5485   -2.8672   13.7336 C   0  0  0  0  0  0  0  0  0  0  0  0
    6.8108   -2.2528   13.8487 N   0  0  0  0  0  0  0  0  0  0  0  0
    7.6963   -2.2582   14.9176 C   0  0  0  0  0  0  0  0  0  0  0  0
    8.6740   -1.3653   15.1039 C   0  0  0  0  0  0  0  0  0  0  0  0
    8.7196   -0.3736   14.0319 C   0  0  0  0  0  0  0  0  0  0  0  0
    7.9220   -0.3927   12.9837 N   0  0  0  0  0  0  0  0  0  0  0  0
    6.9536   -1.3795   12.8475 C   0  0  0  0  0  0  0  0  0  0  0  0
    5.8387   -1.4358   12.1686 N   0  0  0  0  0  0  0  0  0  0  0  0
   -0.2439   -1.0622    9.9253 C   0  0  0  0  0  0  0  0  0  0  0  0
   -1.4849   -1.6082    8.5727 C   0  0  0  0  0  0  0  0  0  0  0  0
   -3.0087   -2.1412    8.1596 C   0  0  0  0  0  0  0  0  0  0  0  0
   -4.0262   -1.3158    8.1862 C   0  0  0  0  0  0  0  0  0  0  0  0
   -3.4506   -0.2730    8.7113 C   0  0  0  0  0  0  0  0  0  0  0  0
   -1.8908   -0.3285    9.3485 C   0  0  0  0  0  0  0  0  0  0  0  0
   -4.2621    0.8207    8.6025 O   0  0  0  0  0  0  0  0  0  0  0  0
   -5.4672    0.3581    7.9127 C   0  0  0  0  0  0  0  0  0  0  0  0
   -5.4244   -1.1545    7.8457 C   0  0  0  0  0  0  0  0  0  0  0  0
    3.0598   -3.1477   10.2069 H   0  0  0  0  0  0  0  0  0  0  0  0
    5.1430   -3.0311   14.7242 H   0  0  0  0  0  0  0  0  0  0  0  0
    7.5458   -3.0898   15.5432 H   0  0  0  0  0  0  0  0  0  0  0  0
    9.4439   -1.3663   15.8521 H   0  0  0  0  0  0  0  0  0  0  0  0
    9.5130    0.3886   14.1085 H   0  0  0  0  0  0  0  0  0  0  0  0
   -1.2063   -1.4142    7.4999 H   0  0  0  0  0  0  0  0  0  0  0  0
   -3.1252   -3.1471    7.7665 H   0  0  0  0  0  0  0  0  0  0  0  0
   -1.9670    0.7596    9.1347 H   0  0  0  0  0  0  0  0  0  0  0  0
   -5.4907    0.8004    6.9100 H   0  0  0  0  0  0  0  0  0  0  0  0
   -6.3520    0.7158    8.4498 H   0  0  0  0  0  0  0  0  0  0  0  0
   -5.7299   -1.5392    6.8737 H   0  0  0  0  0  0  0  0  0  0  0  0
   -6.1112   -1.5396    8.5944 H   0  0  0  0  0  0  0  0  0  0  0  0
  1  2  2  0
  2  3  1  0
  3  4  1  0
  4  5  2  0
  5  6  1  0
  6  7  1  0
  7  8  2  0
  8  9  1  0
  9 10  2  0
 10 11  1  0
 11 12  2  0
  2 13  1  0
 13 14  2  0
 14 15  1  0
 15 16  2  0
 16 17  1  0
 17 18  2  0
 17 19  1  0
 19 20  1  0
 20 21  1  0
 12  4  1  0
 18 13  1  0
 11  6  1  0
 21 16  1  0
  3 22  1  0
  5 23  1  0
  7 24  1  0
  8 25  1  0
  9 26  1  0
 14 27  1  0
 15 28  1  0
 18 29  1  0
 20 30  1  0
 20 31  1  0
 21 32  1  0
 21 33  1  0
M  END
>  <Energy>  (125) 
1134.5407638863039

>  <compound_id>  (125) 
61992

>  <target_id>  (125) 
1

>  <reference_id>  (125) 
106

>  <inspiration_ids>  (125) 
[106, 91]

>  <energy_score>  (125) 
1068.957388954013

>  <distance_score>  (125) 
5.189636311929125

>  <path>  (125) 
/opt/xchem-fragalysis-2/maxwin/BulkDock/SCRATCH/511021/C61992-P106/C61992-P106.minimised.mol

>  <scratch_subdir>  (125) 
/opt/xchem-fragalysis-2/maxwin/BulkDock/SCRATCH/511021/C61992-P106

>  <fragmenstein_runtime>  (125) 
3.7102653980255127

>  <fragmenstein_outcome>  (125) 
too moved

>  <fragmenstein_mode>  (125) 
expansion

>  <fragmenstein_error>  (125) 


$$$$
C61993-P106
     RDKit          3D

 35 38  0  0  0  0  0  0  0  0999 V2000
    4.3003   -0.3727    6.2873 O   0  0  0  0  0  0  0  0  0  0  0  0
    3.5712   -0.1062    7.2427 C   0  0  0  0  0  0  0  0  0  0  0  0
    2.1080   -0.8625    7.5863 O   0  0  0  0  0  0  0  0  0  0  0  0
    0.4805   -1.6191    6.9524 C   0  0  0  0  0  0  0  0  0  0  0  0
   -1.5249   -1.5949    7.5585 C   0  0  0  0  0  0  0  0  0  0  0  0
   -2.6689   -2.7465    7.7382 C   0  0  0  0  0  0  0  0  0  0  0  0
   -4.1357   -2.8619    7.4784 C   0  0  0  0  0  0  0  0  0  0  0  0
   -4.9254   -1.8124    7.4460 C   0  0  0  0  0  0  0  0  0  0  0  0
   -4.1250   -0.7902    7.7656 C   0  0  0  0  0  0  0  0  0  0  0  0
   -2.5344   -0.6981    7.8970 C   0  0  0  0  0  0  0  0  0  0  0  0
   -2.3381    0.4174    8.6102 O   0  0  0  0  0  0  0  0  0  0  0  0
   -3.6394    0.8170    8.9727 C   0  0  0  0  0  0  0  0  0  0  0  0
   -4.8288    0.4155    8.1691 C   0  0  0  0  0  0  0  0  0  0  0  0
    4.0630    1.1584    8.6219 C   0  0  0  0  0  0  0  0  0  0  0  0
    5.4594    1.2471    8.2337 C   0  0  0  0  0  0  0  0  0  0  0  0
    6.4325    0.6016    8.7812 N   0  0  0  0  0  0  0  0  0  0  0  0
    6.5209   -0.2199   10.1782 C   0  0  0  0  0  0  0  0  0  0  0  0
    7.3549   -1.0426   10.7985 N   0  0  0  0  0  0  0  0  0  0  0  0
    7.1807   -0.8972   12.0910 C   0  0  0  0  0  0  0  0  0  0  0  0
    5.8546   -0.9118   12.1668 C   0  0  0  0  0  0  0  0  0  0  0  0
    5.1644   -0.3282   10.8320 N   0  0  0  0  0  0  0  0  0  0  0  0
    4.1535    0.8732   10.1093 C   0  0  0  0  0  0  0  0  0  0  0  0
    1.1426   -2.3073    7.6685 H   0  0  0  0  0  0  0  0  0  0  0  0
    0.7414   -2.1515    6.0771 H   0  0  0  0  0  0  0  0  0  0  0  0
   -2.5208   -3.7870    7.4303 H   0  0  0  0  0  0  0  0  0  0  0  0
   -4.5511   -3.8290    7.2430 H   0  0  0  0  0  0  0  0  0  0  0  0
   -5.9934   -1.8140    7.3222 H   0  0  0  0  0  0  0  0  0  0  0  0
   -3.5363    1.9003    8.9966 H   0  0  0  0  0  0  0  0  0  0  0  0
   -3.8272    0.2846    9.8916 H   0  0  0  0  0  0  0  0  0  0  0  0
   -5.7109    0.2198    8.7881 H   0  0  0  0  0  0  0  0  0  0  0  0
   -5.1607    1.0276    7.3306 H   0  0  0  0  0  0  0  0  0  0  0  0
    5.6543    1.7963    7.2972 H   0  0  0  0  0  0  0  0  0  0  0  0
    7.7425   -1.2268   12.9326 H   0  0  0  0  0  0  0  0  0  0  0  0
    5.7330   -1.9604   12.4266 H   0  0  0  0  0  0  0  0  0  0  0  0
    3.3746    1.1525   10.8018 H   0  0  0  0  0  0  0  0  0  0  0  0
  1  2  2  0
  2  3  1  0
  3  4  1  0
  4  5  1  0
  5  6  2  0
  6  7  1  0
  7  8  2  0
  8  9  1  0
  9 10  2  0
 10 11  1  0
 11 12  1  0
 12 13  1  0
  2 14  1  0
 14 15  1  0
 15 16  2  0
 16 17  1  0
 17 18  2  0
 18 19  1  0
 19 20  2  0
 20 21  1  0
 21 22  1  0
 10  5  1  0
 22 14  2  0
 13  9  1  0
 21 17  1  0
  4 23  1  0
  4 24  1  0
  6 25  1  0
  7 26  1  0
  8 27  1  0
 12 28  1  0
 12 29  1  0
 13 30  1  0
 13 31  1  0
 15 32  1  0
 19 33  1  0
 20 34  1  0
 22 35  1  0
M  END
>  <Energy>  (126) 
740.76839891543727

>  <compound_id>  (126) 
61993

>  <target_id>  (126) 
1

>  <reference_id>  (126) 
106

>  <inspiration_ids>  (126) 
[106, 91]

>  <energy_score>  (126) 
666.3759753348843

>  <distance_score>  (126) 
7.737318815656695

>  <path>  (126) 
/opt/xchem-fragalysis-2/maxwin/BulkDock/SCRATCH/511021/C61993-P106/C61993-P106.minimised.mol

>  <scratch_subdir>  (126) 
/opt/xchem-fragalysis-2/maxwin/BulkDock/SCRATCH/511021/C61993-P106

>  <fragmenstein_runtime>  (126) 
6.0233070850372314

>  <fragmenstein_outcome>  (126) 
too moved

>  <fragmenstein_mode>  (126) 
expansion

>  <fragmenstein_error>  (126) 


$$$$
C61995-P106
     RDKit          3D

 32 35  0  0  0  0  0  0  0  0999 V2000
   -3.6682    1.2725    8.6333 O   0  0  0  0  0  0  0  0  0  0  0  0
   -3.7601    0.1389    8.1227 C   0  0  0  0  0  0  0  0  0  0  0  0
   -4.8607   -0.1250    7.0788 C   0  0  0  0  0  0  0  0  0  0  0  0
   -5.8855   -0.8071    7.5651 C   0  0  0  0  0  0  0  0  0  0  0  0
   -5.7407   -0.8961    8.9649 C   0  0  0  0  0  0  0  0  0  0  0  0
   -4.4763   -0.9268    9.5141 C   0  0  0  0  0  0  0  0  0  0  0  0
   -3.2876   -0.9500    8.8049 N   0  0  0  0  0  0  0  0  0  0  0  0
   -1.5837   -0.8404    9.2834 C   0  0  0  0  0  0  0  0  0  0  0  0
    0.0819   -1.0650   10.5598 C   0  0  0  0  0  0  0  0  0  0  0  0
    0.0343   -0.5698   12.0034 N   0  0  0  0  0  0  0  0  0  0  0  0
    1.5740   -0.4429   12.6331 O   0  0  0  0  0  0  0  0  0  0  0  0
    2.8279   -0.3175   11.4420 C   0  0  0  0  0  0  0  0  0  0  0  0
    4.8008   -0.6529   11.4549 C   0  0  0  0  0  0  0  0  0  0  0  0
    6.3439   -0.5869   10.6769 C   0  0  0  0  0  0  0  0  0  0  0  0
    7.3904   -1.2171   11.1990 N   0  0  0  0  0  0  0  0  0  0  0  0
    7.3003   -0.7509   12.3767 C   0  0  0  0  0  0  0  0  0  0  0  0
    8.2123   -0.3417   13.3626 N   0  0  0  0  0  0  0  0  0  0  0  0
    8.3580   -1.0913   14.4081 C   0  0  0  0  0  0  0  0  0  0  0  0
    7.4235   -2.1675   14.6340 C   0  0  0  0  0  0  0  0  0  0  0  0
    6.3108   -2.1502   13.8812 C   0  0  0  0  0  0  0  0  0  0  0  0
    6.0785   -1.2552   12.6313 N   0  0  0  0  0  0  0  0  0  0  0  0
    1.6917   -0.9682   10.3679 N   0  0  0  0  0  0  0  0  0  0  0  0
   -4.8729    0.3344    6.1081 H   0  0  0  0  0  0  0  0  0  0  0  0
   -6.8026   -1.0219    7.0365 H   0  0  0  0  0  0  0  0  0  0  0  0
   -6.6392   -0.6892    9.5417 H   0  0  0  0  0  0  0  0  0  0  0  0
   -4.3611   -0.5721   10.5233 H   0  0  0  0  0  0  0  0  0  0  0  0
   -1.4298   -1.4840    8.4058 H   0  0  0  0  0  0  0  0  0  0  0  0
   -1.6720    0.1727    8.9504 H   0  0  0  0  0  0  0  0  0  0  0  0
    6.6602    0.0883    9.8538 H   0  0  0  0  0  0  0  0  0  0  0  0
    9.1224   -0.8879   15.1725 H   0  0  0  0  0  0  0  0  0  0  0  0
    7.5831   -2.8380   15.4357 H   0  0  0  0  0  0  0  0  0  0  0  0
    5.5303   -2.7941   14.2270 H   0  0  0  0  0  0  0  0  0  0  0  0
  1  2  2  0
  2  3  1  0
  3  4  2  0
  4  5  1  0
  5  6  2  0
  6  7  1  0
  7  8  1  0
  8  9  1  0
  9 10  2  0
 10 11  1  0
 11 12  1  0
 12 13  1  0
 13 14  2  0
 14 15  1  0
 15 16  2  0
 16 17  1  0
 17 18  2  0
 18 19  1  0
 19 20  2  0
 20 21  1  0
 12 22  2  0
  7  2  1  0
 22  9  1  0
 21 13  1  0
 21 16  1  0
  3 23  1  0
  4 24  1  0
  5 25  1  0
  6 26  1  0
  8 27  1  0
  8 28  1  0
 14 29  1  0
 18 30  1  0
 19 31  1  0
 20 32  1  0
M  END
>  <Energy>  (127) 
860.48728590520784

>  <compound_id>  (127) 
61995

>  <target_id>  (127) 
1

>  <reference_id>  (127) 
106

>  <inspiration_ids>  (127) 
[106, 91]

>  <energy_score>  (127) 
779.8965574932687

>  <distance_score>  (127) 
6.545054130683151

>  <path>  (127) 
/opt/xchem-fragalysis-2/maxwin/BulkDock/SCRATCH/511021/C61995-P106/C61995-P106.minimised.mol

>  <scratch_subdir>  (127) 
/opt/xchem-fragalysis-2/maxwin/BulkDock/SCRATCH/511021/C61995-P106

>  <fragmenstein_runtime>  (127) 
7.036137342453003

>  <fragmenstein_outcome>  (127) 
too moved

>  <fragmenstein_mode>  (127) 
expansion

>  <fragmenstein_error>  (127) 


$$$$
C61996-P106
     RDKit          3D

 34 36  0  0  0  0  0  0  0  0999 V2000
    2.5024   -0.2656   11.6148 O   0  0  0  0  0  0  0  0  0  0  0  0
    2.0692   -1.3096   11.2080 C   0  0  0  0  0  0  0  0  0  0  0  0
    0.1616   -1.1755   10.4158 C   0  0  0  0  0  0  0  0  0  0  0  0
   -1.5617   -0.8614    9.1563 C   0  0  0  0  0  0  0  0  0  0  0  0
   -3.2792   -0.8740    8.7987 N   0  0  0  0  0  0  0  0  0  0  0  0
   -4.3598   -0.4114    9.5407 C   0  0  0  0  0  0  0  0  0  0  0  0
   -5.6506   -0.2965    9.1023 C   0  0  0  0  0  0  0  0  0  0  0  0
   -5.9140   -0.0673    7.7470 C   0  0  0  0  0  0  0  0  0  0  0  0
   -4.8826   -0.4022    7.0026 C   0  0  0  0  0  0  0  0  0  0  0  0
   -3.8634   -1.3459    7.6328 C   0  0  0  0  0  0  0  0  0  0  0  0
   -3.9621   -2.5487    7.4013 O   0  0  0  0  0  0  0  0  0  0  0  0
    3.1337   -2.8586   11.5032 N   0  0  0  0  0  0  0  0  0  0  0  0
    4.6728   -3.1034   12.4103 C   0  0  0  0  0  0  0  0  0  0  0  0
    5.1204   -3.4129   13.7779 C   0  0  0  0  0  0  0  0  0  0  0  0
    6.4900   -2.5774   14.1808 N   0  0  0  0  0  0  0  0  0  0  0  0
    7.5058   -2.5706   15.1353 C   0  0  0  0  0  0  0  0  0  0  0  0
    8.5290   -1.7001   15.2605 C   0  0  0  0  0  0  0  0  0  0  0  0
    8.5550   -0.6669   14.2739 C   0  0  0  0  0  0  0  0  0  0  0  0
    7.7218   -0.6972   13.2798 N   0  0  0  0  0  0  0  0  0  0  0  0
    6.8219   -1.7236   13.1967 C   0  0  0  0  0  0  0  0  0  0  0  0
    5.9775   -1.9594   12.3036 N   0  0  0  0  0  0  0  0  0  0  0  0
   -0.7358   -1.3498   11.0141 H   0  0  0  0  0  0  0  0  0  0  0  0
    0.1041   -0.6312   11.3964 H   0  0  0  0  0  0  0  0  0  0  0  0
   -1.4579   -1.4990    8.2707 H   0  0  0  0  0  0  0  0  0  0  0  0
   -1.6940    0.1706    8.8645 H   0  0  0  0  0  0  0  0  0  0  0  0
   -4.2096   -0.3411   10.5904 H   0  0  0  0  0  0  0  0  0  0  0  0
   -6.5148   -0.1553    9.7492 H   0  0  0  0  0  0  0  0  0  0  0  0
   -6.7347    0.5552    7.4183 H   0  0  0  0  0  0  0  0  0  0  0  0
   -4.8245    0.0345    6.0277 H   0  0  0  0  0  0  0  0  0  0  0  0
    2.6178   -3.6630   11.1911 H   0  0  0  0  0  0  0  0  0  0  0  0
    4.7232   -3.9466   14.6259 H   0  0  0  0  0  0  0  0  0  0  0  0
    7.5575   -3.4619   15.6664 H   0  0  0  0  0  0  0  0  0  0  0  0
    9.4194   -1.7530   15.8618 H   0  0  0  0  0  0  0  0  0  0  0  0
    9.3192    0.1209   14.3698 H   0  0  0  0  0  0  0  0  0  0  0  0
  1  2  2  0
  2  3  1  0
  3  4  1  0
  4  5  1  0
  5  6  1  0
  6  7  2  0
  7  8  1  0
  8  9  2  0
  9 10  1  0
 10 11  2  0
  2 12  1  0
 12 13  1  0
 13 14  2  0
 14 15  1  0
 15 16  1  0
 16 17  2  0
 17 18  1  0
 18 19  2  0
 19 20  1  0
 20 21  2  0
 10  5  1  0
 21 13  1  0
 20 15  1  0
  3 22  1  0
  3 23  1  0
  4 24  1  0
  4 25  1  0
  6 26  1  0
  7 27  1  0
  8 28  1  0
  9 29  1  0
 12 30  1  0
 14 31  1  0
 16 32  1  0
 17 33  1  0
 18 34  1  0
M  END
>  <Energy>  (128) 
704.08761190818211

>  <compound_id>  (128) 
61996

>  <target_id>  (128) 
1

>  <reference_id>  (128) 
106

>  <inspiration_ids>  (128) 
[106, 91]

>  <energy_score>  (128) 
692.0960792728758

>  <distance_score>  (128) 
6.424814049428153

>  <path>  (128) 
/opt/xchem-fragalysis-2/maxwin/BulkDock/SCRATCH/511021/C61996-P106/C61996-P106.minimised.mol

>  <scratch_subdir>  (128) 
/opt/xchem-fragalysis-2/maxwin/BulkDock/SCRATCH/511021/C61996-P106

>  <fragmenstein_runtime>  (128) 
7.726630687713623

>  <fragmenstein_outcome>  (128) 
too moved

>  <fragmenstein_mode>  (128) 
expansion

>  <fragmenstein_error>  (128) 


$$$$
C61989-P106
     RDKit          3D

 33 36  0  0  0  0  0  0  0  0999 V2000
    1.7021   -0.4339   12.4694 O   0  0  0  0  0  0  0  0  0  0  0  0
    2.1568   -0.7925   11.3587 C   0  0  0  0  0  0  0  0  0  0  0  0
    0.9158   -1.1350    9.8402 N   0  0  0  0  0  0  0  0  0  0  0  0
   -1.1618   -0.9005    9.5267 C   0  0  0  0  0  0  0  0  0  0  0  0
   -1.7786   -1.6344    8.3342 C   0  0  0  0  0  0  0  0  0  0  0  0
   -2.9815   -2.4586    8.0556 C   0  0  0  0  0  0  0  0  0  0  0  0
   -4.1647   -1.9180    7.9648 C   0  0  0  0  0  0  0  0  0  0  0  0
   -4.0936   -0.8440    8.7253 C   0  0  0  0  0  0  0  0  0  0  0  0
   -2.6900   -0.1804    9.1758 C   0  0  0  0  0  0  0  0  0  0  0  0
   -3.2412    1.1368    8.8886 O   0  0  0  0  0  0  0  0  0  0  0  0
   -4.7165    0.9804    8.2216 C   0  0  0  0  0  0  0  0  0  0  0  0
   -5.4042   -0.1689    8.7513 C   0  0  0  0  0  0  0  0  0  0  0  0
    4.2809   -0.7516   11.3642 C   0  0  0  0  0  0  0  0  0  0  0  0
    6.0145   -0.6657   10.9612 C   0  0  0  0  0  0  0  0  0  0  0  0
    7.2126   -0.9299   12.1675 N   0  0  0  0  0  0  0  0  0  0  0  0
    8.2793   -0.2365   13.0250 C   0  0  0  0  0  0  0  0  0  0  0  0
    8.6019   -0.6439   14.2858 C   0  0  0  0  0  0  0  0  0  0  0  0
    9.7747    0.0234   15.3194 Cl  0  0  0  0  0  0  0  0  0  0  0  0
    7.7886   -1.7807   14.7111 C   0  0  0  0  0  0  0  0  0  0  0  0
    6.7593   -2.2645   14.0961 N   0  0  0  0  0  0  0  0  0  0  0  0
    6.4376   -1.7282   12.8747 C   0  0  0  0  0  0  0  0  0  0  0  0
    5.5813   -0.7439   12.5568 N   0  0  0  0  0  0  0  0  0  0  0  0
    1.4323   -1.4841    9.0734 H   0  0  0  0  0  0  0  0  0  0  0  0
   -1.3015   -1.4882    7.3753 H   0  0  0  0  0  0  0  0  0  0  0  0
   -2.9471   -3.4363    7.5855 H   0  0  0  0  0  0  0  0  0  0  0  0
   -5.0344   -2.3707    7.5166 H   0  0  0  0  0  0  0  0  0  0  0  0
   -5.2442    1.9399    8.1340 H   0  0  0  0  0  0  0  0  0  0  0  0
   -4.7059    0.6770    7.1551 H   0  0  0  0  0  0  0  0  0  0  0  0
   -6.1416   -0.5338    8.0212 H   0  0  0  0  0  0  0  0  0  0  0  0
   -5.9440   -0.1850    9.6765 H   0  0  0  0  0  0  0  0  0  0  0  0
    6.6130   -0.3306   10.1462 H   0  0  0  0  0  0  0  0  0  0  0  0
    8.8864    0.5731   12.7055 H   0  0  0  0  0  0  0  0  0  0  0  0
    8.0336   -2.1788   15.6771 H   0  0  0  0  0  0  0  0  0  0  0  0
  1  2  2  0
  2  3  1  0
  3  4  1  0
  4  5  2  0
  5  6  1  0
  6  7  2  0
  7  8  1  0
  8  9  2  0
  9 10  1  0
 10 11  1  0
 11 12  1  0
  2 13  1  0
 13 14  2  0
 14 15  1  0
 15 16  1  0
 16 17  2  0
 17 18  1  0
 17 19  1  0
 19 20  2  0
 20 21  1  0
 21 22  2  0
  9  4  1  0
 22 13  1  0
 12  8  1  0
 21 15  1  0
  3 23  1  0
  5 24  1  0
  6 25  1  0
  7 26  1  0
 11 27  1  0
 11 28  1  0
 12 29  1  0
 12 30  1  0
 14 31  1  0
 16 32  1  0
 19 33  1  0
M  END
>  <Energy>  (129) 
1241.2382132099503

>  <compound_id>  (129) 
61989

>  <target_id>  (129) 
1

>  <reference_id>  (129) 
106

>  <inspiration_ids>  (129) 
[106, 91]

>  <energy_score>  (129) 
1118.02346025202

>  <distance_score>  (129) 
5.7044170236017955

>  <path>  (129) 
/opt/xchem-fragalysis-2/maxwin/BulkDock/SCRATCH/511021/C61989-P106/C61989-P106.minimised.mol

>  <scratch_subdir>  (129) 
/opt/xchem-fragalysis-2/maxwin/BulkDock/SCRATCH/511021/C61989-P106

>  <fragmenstein_runtime>  (129) 
3.9068286418914795

>  <fragmenstein_outcome>  (129) 
too moved

>  <fragmenstein_mode>  (129) 
expansion

>  <fragmenstein_error>  (129) 


$$$$
C61997-P106
     RDKit          3D

 34 37  0  0  0  0  0  0  0  0999 V2000
   -3.6219    0.8708    8.7120 C   0  0  0  0  0  0  0  0  0  0  0  0
   -2.4201    0.2302    9.1168 C   0  0  0  0  0  0  0  0  0  0  0  0
   -1.6745   -0.9871    9.0328 C   0  0  0  0  0  0  0  0  0  0  0  0
   -0.1842   -1.1386   10.3035 N   0  0  0  0  0  0  0  0  0  0  0  0
    1.5697   -1.6671   10.3540 C   0  0  0  0  0  0  0  0  0  0  0  0
    3.2462   -2.2958   11.3624 C   0  0  0  0  0  0  0  0  0  0  0  0
    3.9883   -3.3048   12.0753 C   0  0  0  0  0  0  0  0  0  0  0  0
    5.5180   -2.7609   12.6917 N   0  0  0  0  0  0  0  0  0  0  0  0
    6.0838   -2.7633   14.1362 C   0  0  0  0  0  0  0  0  0  0  0  0
    7.2134   -2.1794   14.5148 C   0  0  0  0  0  0  0  0  0  0  0  0
    7.7107   -1.2638   13.5284 C   0  0  0  0  0  0  0  0  0  0  0  0
    7.1277   -0.8343   12.4546 N   0  0  0  0  0  0  0  0  0  0  0  0
    5.8931   -1.3074   12.1732 C   0  0  0  0  0  0  0  0  0  0  0  0
    4.5420   -0.9463   11.4539 N   0  0  0  0  0  0  0  0  0  0  0  0
   -2.8387   -1.8147    8.3839 C   0  0  0  0  0  0  0  0  0  0  0  0
   -4.1983   -1.1605    8.0131 C   0  0  0  0  0  0  0  0  0  0  0  0
   -4.6198    0.1194    8.2141 C   0  0  0  0  0  0  0  0  0  0  0  0
   -5.2110   -1.8698    7.4216 O   0  0  0  0  0  0  0  0  0  0  0  0
   -4.6721   -3.1292    7.2022 C   0  0  0  0  0  0  0  0  0  0  0  0
   -3.2959   -3.2157    7.9226 C   0  0  0  0  0  0  0  0  0  0  0  0
   -3.5970    1.9539    8.7852 H   0  0  0  0  0  0  0  0  0  0  0  0
   -3.1271   -0.0752    9.9016 H   0  0  0  0  0  0  0  0  0  0  0  0
   -0.8183   -1.2086   11.1156 H   0  0  0  0  0  0  0  0  0  0  0  0
    1.4864   -2.1614    9.3970 H   0  0  0  0  0  0  0  0  0  0  0  0
    1.7992   -0.6486   10.0977 H   0  0  0  0  0  0  0  0  0  0  0  0
    3.7698   -4.3332   12.3033 H   0  0  0  0  0  0  0  0  0  0  0  0
    5.4536   -3.1748   14.9012 H   0  0  0  0  0  0  0  0  0  0  0  0
    7.6258   -2.1357   15.4987 H   0  0  0  0  0  0  0  0  0  0  0  0
    8.5800   -0.6697   13.8990 H   0  0  0  0  0  0  0  0  0  0  0  0
   -5.5805    0.4961    7.8969 H   0  0  0  0  0  0  0  0  0  0  0  0
   -5.4354   -3.8121    7.5421 H   0  0  0  0  0  0  0  0  0  0  0  0
   -4.6614   -3.3581    6.1445 H   0  0  0  0  0  0  0  0  0  0  0  0
   -2.6759   -3.7526    7.2631 H   0  0  0  0  0  0  0  0  0  0  0  0
   -3.3403   -3.9896    8.6782 H   0  0  0  0  0  0  0  0  0  0  0  0
  1  2  2  0
  2  3  1  0
  3  4  1  0
  4  5  1  0
  5  6  1  0
  6  7  2  0
  7  8  1  0
  8  9  1  0
  9 10  2  0
 10 11  1  0
 11 12  2  0
 12 13  1  0
 13 14  2  0
  3 15  2  0
 15 16  1  0
 16 17  2  0
 16 18  1  0
 18 19  1  0
 19 20  1  0
 17  1  1  0
 14  6  1  0
 20 15  1  0
 13  8  1  0
  1 21  1  0
  2 22  1  0
  4 23  1  0
  5 24  1  0
  5 25  1  0
  7 26  1  0
  9 27  1  0
 10 28  1  0
 11 29  1  0
 17 30  1  0
 19 31  1  0
 19 32  1  0
 20 33  1  0
 20 34  1  0
M  END
>  <Energy>  (130) 
713.56779875892573

>  <compound_id>  (130) 
61997

>  <target_id>  (130) 
1

>  <reference_id>  (130) 
106

>  <inspiration_ids>  (130) 
[106, 91]

>  <energy_score>  (130) 
624.0350722762797

>  <distance_score>  (130) 
6.540211026561352

>  <path>  (130) 
/opt/xchem-fragalysis-2/maxwin/BulkDock/SCRATCH/511021/C61997-P106/C61997-P106.minimised.mol

>  <scratch_subdir>  (130) 
/opt/xchem-fragalysis-2/maxwin/BulkDock/SCRATCH/511021/C61997-P106

>  <fragmenstein_runtime>  (130) 
6.047773122787476

>  <fragmenstein_outcome>  (130) 
too moved

>  <fragmenstein_mode>  (130) 
expansion

>  <fragmenstein_error>  (130) 


$$$$
C61995-P106
     RDKit          3D

 32 35  0  0  0  0  0  0  0  0999 V2000
   -3.6682    1.2725    8.6333 O   0  0  0  0  0  0  0  0  0  0  0  0
   -3.7601    0.1389    8.1227 C   0  0  0  0  0  0  0  0  0  0  0  0
   -4.8607   -0.1250    7.0788 C   0  0  0  0  0  0  0  0  0  0  0  0
   -5.8855   -0.8071    7.5651 C   0  0  0  0  0  0  0  0  0  0  0  0
   -5.7407   -0.8961    8.9649 C   0  0  0  0  0  0  0  0  0  0  0  0
   -4.4763   -0.9268    9.5141 C   0  0  0  0  0  0  0  0  0  0  0  0
   -3.2876   -0.9500    8.8049 N   0  0  0  0  0  0  0  0  0  0  0  0
   -1.5837   -0.8404    9.2834 C   0  0  0  0  0  0  0  0  0  0  0  0
    0.0819   -1.0650   10.5598 C   0  0  0  0  0  0  0  0  0  0  0  0
    0.0343   -0.5698   12.0034 N   0  0  0  0  0  0  0  0  0  0  0  0
    1.5740   -0.4429   12.6331 O   0  0  0  0  0  0  0  0  0  0  0  0
    2.8279   -0.3175   11.4420 C   0  0  0  0  0  0  0  0  0  0  0  0
    4.8008   -0.6529   11.4549 C   0  0  0  0  0  0  0  0  0  0  0  0
    6.3439   -0.5869   10.6769 C   0  0  0  0  0  0  0  0  0  0  0  0
    7.3904   -1.2171   11.1990 N   0  0  0  0  0  0  0  0  0  0  0  0
    7.3003   -0.7509   12.3767 C   0  0  0  0  0  0  0  0  0  0  0  0
    8.2123   -0.3417   13.3626 N   0  0  0  0  0  0  0  0  0  0  0  0
    8.3580   -1.0913   14.4081 C   0  0  0  0  0  0  0  0  0  0  0  0
    7.4235   -2.1675   14.6340 C   0  0  0  0  0  0  0  0  0  0  0  0
    6.3108   -2.1502   13.8812 C   0  0  0  0  0  0  0  0  0  0  0  0
    6.0785   -1.2552   12.6313 N   0  0  0  0  0  0  0  0  0  0  0  0
    1.6917   -0.9682   10.3679 N   0  0  0  0  0  0  0  0  0  0  0  0
   -4.8729    0.3344    6.1081 H   0  0  0  0  0  0  0  0  0  0  0  0
   -6.8026   -1.0219    7.0365 H   0  0  0  0  0  0  0  0  0  0  0  0
   -6.6392   -0.6892    9.5417 H   0  0  0  0  0  0  0  0  0  0  0  0
   -4.3611   -0.5721   10.5233 H   0  0  0  0  0  0  0  0  0  0  0  0
   -1.4298   -1.4840    8.4058 H   0  0  0  0  0  0  0  0  0  0  0  0
   -1.6720    0.1727    8.9504 H   0  0  0  0  0  0  0  0  0  0  0  0
    6.6602    0.0883    9.8538 H   0  0  0  0  0  0  0  0  0  0  0  0
    9.1224   -0.8879   15.1725 H   0  0  0  0  0  0  0  0  0  0  0  0
    7.5831   -2.8380   15.4357 H   0  0  0  0  0  0  0  0  0  0  0  0
    5.5303   -2.7941   14.2270 H   0  0  0  0  0  0  0  0  0  0  0  0
  1  2  2  0
  2  3  1  0
  3  4  2  0
  4  5  1  0
  5  6  2  0
  6  7  1  0
  7  8  1  0
  8  9  1  0
  9 10  2  0
 10 11  1  0
 11 12  1  0
 12 13  1  0
 13 14  2  0
 14 15  1  0
 15 16  2  0
 16 17  1  0
 17 18  2  0
 18 19  1  0
 19 20  2  0
 20 21  1  0
 12 22  2  0
  7  2  1  0
 22  9  1  0
 21 13  1  0
 21 16  1  0
  3 23  1  0
  4 24  1  0
  5 25  1  0
  6 26  1  0
  8 27  1  0
  8 28  1  0
 14 29  1  0
 18 30  1  0
 19 31  1  0
 20 32  1  0
M  END
>  <Energy>  (131) 
860.48728590520784

>  <compound_id>  (131) 
61995

>  <target_id>  (131) 
1

>  <reference_id>  (131) 
106

>  <inspiration_ids>  (131) 
[106, 91]

>  <energy_score>  (131) 
779.8965574932687

>  <distance_score>  (131) 
6.545054130683151

>  <path>  (131) 
/opt/xchem-fragalysis-2/maxwin/BulkDock/SCRATCH/511021/C61995-P106/C61995-P106.minimised.mol

>  <scratch_subdir>  (131) 
/opt/xchem-fragalysis-2/maxwin/BulkDock/SCRATCH/511021/C61995-P106

>  <fragmenstein_runtime>  (131) 
9.902008533477783

>  <fragmenstein_outcome>  (131) 
too moved

>  <fragmenstein_mode>  (131) 
expansion

>  <fragmenstein_error>  (131) 


$$$$
C61998-P106
     RDKit          3D

 33 35  0  0  0  0  0  0  0  0999 V2000
   -1.3079    0.0560   12.4187 O   0  0  0  0  0  0  0  0  0  0  0  0
   -2.3431    0.6045   12.8649 C   0  0  0  0  0  0  0  0  0  0  0  0
   -3.5202   -0.1028   12.3868 O   0  0  0  0  0  0  0  0  0  0  0  0
   -5.2729   -0.4436   11.9777 C   0  0  0  0  0  0  0  0  0  0  0  0
   -6.7108   -0.2190   10.6828 C   0  0  0  0  0  0  0  0  0  0  0  0
   -6.7072   -0.5309    9.2163 N   0  0  0  0  0  0  0  0  0  0  0  0
   -7.9616   -0.7439    8.6222 C   0  0  0  0  0  0  0  0  0  0  0  0
   -8.1416   -0.7993    7.2991 C   0  0  0  0  0  0  0  0  0  0  0  0
   -7.0506   -0.5087    6.4238 C   0  0  0  0  0  0  0  0  0  0  0  0
   -5.8674   -0.1861    6.9474 C   0  0  0  0  0  0  0  0  0  0  0  0
   -5.6191   -0.2219    8.4072 C   0  0  0  0  0  0  0  0  0  0  0  0
   -4.4989    0.0866    8.7920 O   0  0  0  0  0  0  0  0  0  0  0  0
   -1.9709    2.1740   13.8182 C   0  0  0  0  0  0  0  0  0  0  0  0
   -0.6683    2.9470   13.4681 C   0  0  0  0  0  0  0  0  0  0  0  0
    0.4110    3.1476   14.1678 N   0  0  0  0  0  0  0  0  0  0  0  0
    0.3814    2.6610   15.4275 C   0  0  0  0  0  0  0  0  0  0  0  0
    1.3553    2.4735   16.2976 N   0  0  0  0  0  0  0  0  0  0  0  0
    0.7498    2.0616   17.4472 C   0  0  0  0  0  0  0  0  0  0  0  0
   -0.6078    1.9448   17.2726 C   0  0  0  0  0  0  0  0  0  0  0  0
   -0.8493    2.3050   15.9678 N   0  0  0  0  0  0  0  0  0  0  0  0
   -2.0407    2.1639   15.1976 C   0  0  0  0  0  0  0  0  0  0  0  0
   -4.6497   -0.4336   11.0768 H   0  0  0  0  0  0  0  0  0  0  0  0
   -5.9167   -0.0011   12.7209 H   0  0  0  0  0  0  0  0  0  0  0  0
   -7.4993   -0.7082   11.2006 H   0  0  0  0  0  0  0  0  0  0  0  0
   -7.1617    0.7559   10.6476 H   0  0  0  0  0  0  0  0  0  0  0  0
   -8.8272   -0.8487    9.2707 H   0  0  0  0  0  0  0  0  0  0  0  0
   -9.1252   -0.9753    6.8759 H   0  0  0  0  0  0  0  0  0  0  0  0
   -7.2224   -0.4834    5.3529 H   0  0  0  0  0  0  0  0  0  0  0  0
   -5.0408    0.1309    6.3375 H   0  0  0  0  0  0  0  0  0  0  0  0
   -0.6843    3.4441   12.4953 H   0  0  0  0  0  0  0  0  0  0  0  0
    1.3103    1.8787   18.3513 H   0  0  0  0  0  0  0  0  0  0  0  0
   -1.3993    1.6314   17.9371 H   0  0  0  0  0  0  0  0  0  0  0  0
   -2.8156    1.6064   15.7169 H   0  0  0  0  0  0  0  0  0  0  0  0
  1  2  2  0
  2  3  1  0
  3  4  1  0
  4  5  1  0
  5  6  1  0
  6  7  1  0
  7  8  2  0
  8  9  1  0
  9 10  2  0
 10 11  1  0
 11 12  2  0
  2 13  1  0
 13 14  1  0
 14 15  2  0
 15 16  1  0
 16 17  2  0
 17 18  1  0
 18 19  2  0
 19 20  1  0
 20 21  1  0
 11  6  1  0
 21 13  2  0
 20 16  1  0
  4 22  1  0
  4 23  1  0
  5 24  1  0
  5 25  1  0
  7 26  1  0
  8 27  1  0
  9 28  1  0
 10 29  1  0
 14 30  1  0
 18 31  1  0
 19 32  1  0
 21 33  1  0
M  END
>  <Energy>  (132) 
331.03818712887744

>  <compound_id>  (132) 
61998

>  <target_id>  (132) 
1

>  <reference_id>  (132) 
106

>  <inspiration_ids>  (132) 
[106, 91]

>  <energy_score>  (132) 
277.10397727781765

>  <distance_score>  (132) 
10.394600704432989

>  <path>  (132) 
/opt/xchem-fragalysis-2/maxwin/BulkDock/SCRATCH/511021/C61998-P106/C61998-P106.minimised.mol

>  <scratch_subdir>  (132) 
/opt/xchem-fragalysis-2/maxwin/BulkDock/SCRATCH/511021/C61998-P106

>  <fragmenstein_runtime>  (132) 
11.320687770843506

>  <fragmenstein_outcome>  (132) 
too moved

>  <fragmenstein_mode>  (132) 
expansion

>  <fragmenstein_error>  (132) 


$$$$
C61999-P106
     RDKit          3D

 39 42  0  0  0  0  0  0  0  0999 V2000
    1.2986   -2.7164    8.4938 O   0  0  0  0  0  0  0  0  0  0  0  0
    0.5436   -2.0338    9.1729 C   0  0  0  0  0  0  0  0  0  0  0  0
    0.8545   -1.1192   10.5626 N   0  0  0  0  0  0  0  0  0  0  0  0
    2.4588   -0.7036   11.4759 C   0  0  0  0  0  0  0  0  0  0  0  0
    4.4532   -0.8050   11.3880 C   0  0  0  0  0  0  0  0  0  0  0  0
    6.1034   -1.1534   12.3501 C   0  0  0  0  0  0  0  0  0  0  0  0
    6.5243   -1.9490   13.4741 C   0  0  0  0  0  0  0  0  0  0  0  0
    7.7384   -1.4646   13.9100 N   0  0  0  0  0  0  0  0  0  0  0  0
    8.4347   -1.6380   15.0782 C   0  0  0  0  0  0  0  0  0  0  0  0
    9.5479   -0.9327   15.3315 C   0  0  0  0  0  0  0  0  0  0  0  0
    9.8883    0.0970   14.3133 C   0  0  0  0  0  0  0  0  0  0  0  0
    9.2150    0.3481   13.2288 N   0  0  0  0  0  0  0  0  0  0  0  0
    8.0823   -0.4651   13.0088 C   0  0  0  0  0  0  0  0  0  0  0  0
    7.3031   -0.6376   11.9409 N   0  0  0  0  0  0  0  0  0  0  0  0
   -1.5046   -1.7316    8.4879 C   0  0  0  0  0  0  0  0  0  0  0  0
   -2.6949   -2.6989    7.9737 C   0  0  0  0  0  0  0  0  0  0  0  0
   -4.1417   -2.8031    7.4816 C   0  0  0  0  0  0  0  0  0  0  0  0
   -4.9312   -1.7653    7.5318 C   0  0  0  0  0  0  0  0  0  0  0  0
   -4.1273   -0.7951    7.9844 C   0  0  0  0  0  0  0  0  0  0  0  0
   -2.5285   -0.7678    8.4237 C   0  0  0  0  0  0  0  0  0  0  0  0
   -2.3568    0.5248    8.7179 O   0  0  0  0  0  0  0  0  0  0  0  0
   -3.6633    0.9694    8.9439 C   0  0  0  0  0  0  0  0  0  0  0  0
   -4.8205    0.4755    8.1501 C   0  0  0  0  0  0  0  0  0  0  0  0
    0.0331   -0.7650   10.9090 H   0  0  0  0  0  0  0  0  0  0  0  0
    2.0320   -0.2549   12.4265 H   0  0  0  0  0  0  0  0  0  0  0  0
    2.7708    0.2908   10.9758 H   0  0  0  0  0  0  0  0  0  0  0  0
    4.6682   -0.0636   10.6378 H   0  0  0  0  0  0  0  0  0  0  0  0
    4.0336   -1.8842   11.5075 H   0  0  0  0  0  0  0  0  0  0  0  0
    6.0167   -2.6446   14.1206 H   0  0  0  0  0  0  0  0  0  0  0  0
    7.9685   -2.3913   15.6534 H   0  0  0  0  0  0  0  0  0  0  0  0
   10.2255   -1.0559   16.1551 H   0  0  0  0  0  0  0  0  0  0  0  0
   10.7940    0.6883   14.5269 H   0  0  0  0  0  0  0  0  0  0  0  0
   -2.5667   -3.7169    7.6033 H   0  0  0  0  0  0  0  0  0  0  0  0
   -4.5112   -3.7441    7.0900 H   0  0  0  0  0  0  0  0  0  0  0  0
   -5.9675   -1.7127    7.2543 H   0  0  0  0  0  0  0  0  0  0  0  0
   -3.8849    0.4832    9.8777 H   0  0  0  0  0  0  0  0  0  0  0  0
   -3.5620    2.0576    8.9181 H   0  0  0  0  0  0  0  0  0  0  0  0
   -5.1020    0.9312    7.2002 H   0  0  0  0  0  0  0  0  0  0  0  0
   -5.7417    0.3845    8.7355 H   0  0  0  0  0  0  0  0  0  0  0  0
  1  2  2  0
  2  3  1  0
  3  4  1  0
  4  5  1  0
  5  6  1  0
  6  7  2  0
  7  8  1  0
  8  9  1  0
  9 10  2  0
 10 11  1  0
 11 12  2  0
 12 13  1  0
 13 14  2  0
  2 15  1  0
 15 16  2  0
 16 17  1  0
 17 18  2  0
 18 19  1  0
 19 20  2  0
 20 21  1  0
 21 22  1  0
 22 23  1  0
 14  6  1  0
 20 15  1  0
 13  8  1  0
 23 19  1  0
  3 24  1  0
  4 25  1  0
  4 26  1  0
  5 27  1  0
  5 28  1  0
  7 29  1  0
  9 30  1  0
 10 31  1  0
 11 32  1  0
 16 33  1  0
 17 34  1  0
 18 35  1  0
 22 36  1  0
 22 37  1  0
 23 38  1  0
 23 39  1  0
M  END
>  <Energy>  (133) 
655.13819401110504

>  <compound_id>  (133) 
61999

>  <target_id>  (133) 
1

>  <reference_id>  (133) 
106

>  <inspiration_ids>  (133) 
[106, 91]

>  <energy_score>  (133) 
562.9789023194545

>  <distance_score>  (133) 
4.656411664040103

>  <path>  (133) 
/opt/xchem-fragalysis-2/maxwin/BulkDock/SCRATCH/511021/C61999-P106/C61999-P106.minimised.mol

>  <scratch_subdir>  (133) 
/opt/xchem-fragalysis-2/maxwin/BulkDock/SCRATCH/511021/C61999-P106

>  <fragmenstein_runtime>  (133) 
7.527042388916016

>  <fragmenstein_outcome>  (133) 
too moved

>  <fragmenstein_mode>  (133) 
expansion

>  <fragmenstein_error>  (133) 


$$$$
C62000-P106
     RDKit          3D

 35 38  0  0  0  0  0  0  0  0999 V2000
    4.0533    0.8997   10.5690 O   0  0  0  0  0  0  0  0  0  0  0  0
    4.0282   -0.1561   11.2339 C   0  0  0  0  0  0  0  0  0  0  0  0
    2.2205   -0.8262   11.3179 O   0  0  0  0  0  0  0  0  0  0  0  0
    0.4958   -1.0276   10.2711 C   0  0  0  0  0  0  0  0  0  0  0  0
   -1.4534   -0.8123    9.3614 C   0  0  0  0  0  0  0  0  0  0  0  0
   -2.0141   -1.7526    8.5753 C   0  0  0  0  0  0  0  0  0  0  0  0
   -2.2944   -1.2157    7.4536 C   0  0  0  0  0  0  0  0  0  0  0  0
   -3.5806   -0.9515    7.3182 C   0  0  0  0  0  0  0  0  0  0  0  0
   -3.7933    0.0747    8.1287 C   0  0  0  0  0  0  0  0  0  0  0  0
   -2.8386    0.1423    9.2258 C   0  0  0  0  0  0  0  0  0  0  0  0
   -4.3469   -0.4835    9.8371 C   0  0  0  0  0  0  0  0  0  0  0  0
   -5.6183   -0.1785    8.9977 C   0  0  0  0  0  0  0  0  0  0  0  0
   -5.0240    0.6716    8.0745 O   0  0  0  0  0  0  0  0  0  0  0  0
    5.7108   -0.8648   12.0882 C   0  0  0  0  0  0  0  0  0  0  0  0
    5.9943   -2.2478   12.6191 C   0  0  0  0  0  0  0  0  0  0  0  0
    6.3832   -2.4237   13.9310 N   0  0  0  0  0  0  0  0  0  0  0  0
    7.4603   -1.7629   13.9382 C   0  0  0  0  0  0  0  0  0  0  0  0
    8.3784   -1.7461   14.9882 N   0  0  0  0  0  0  0  0  0  0  0  0
    9.4662   -1.0320   14.9218 C   0  0  0  0  0  0  0  0  0  0  0  0
    9.7531   -0.0157   13.8547 C   0  0  0  0  0  0  0  0  0  0  0  0
    8.6420    0.1417   13.0649 C   0  0  0  0  0  0  0  0  0  0  0  0
    7.3701   -0.8102   12.7464 N   0  0  0  0  0  0  0  0  0  0  0  0
    1.1195   -0.3075    9.7336 H   0  0  0  0  0  0  0  0  0  0  0  0
    0.9172   -1.8747    9.7442 H   0  0  0  0  0  0  0  0  0  0  0  0
   -2.8059   -2.4209    8.8943 H   0  0  0  0  0  0  0  0  0  0  0  0
   -1.4898   -1.6206    6.8755 H   0  0  0  0  0  0  0  0  0  0  0  0
   -4.3836   -1.5947    7.0151 H   0  0  0  0  0  0  0  0  0  0  0  0
   -4.3751   -0.3837   10.9198 H   0  0  0  0  0  0  0  0  0  0  0  0
   -4.2715   -1.5263    9.6082 H   0  0  0  0  0  0  0  0  0  0  0  0
   -6.0332   -1.0724    8.5078 H   0  0  0  0  0  0  0  0  0  0  0  0
   -6.4817    0.2810    9.4848 H   0  0  0  0  0  0  0  0  0  0  0  0
    5.2589   -3.0405   12.3621 H   0  0  0  0  0  0  0  0  0  0  0  0
   10.2323   -1.1136   15.7087 H   0  0  0  0  0  0  0  0  0  0  0  0
   10.7654    0.2638   13.6047 H   0  0  0  0  0  0  0  0  0  0  0  0
    8.2545    0.3527   14.0577 H   0  0  0  0  0  0  0  0  0  0  0  0
  1  2  2  0
  2  3  1  0
  3  4  1  0
  4  5  1  0
  5  6  2  0
  6  7  1  0
  7  8  2  0
  8  9  1  0
  9 10  2  0
 10 11  1  0
 11 12  1  0
 12 13  1  0
  2 14  1  0
 14 15  2  0
 15 16  1  0
 16 17  2  0
 17 18  1  0
 18 19  2  0
 19 20  1  0
 20 21  2  0
 21 22  1  0
 10  5  1  0
 22 14  1  0
 13  9  1  0
 22 17  1  0
  4 23  1  0
  4 24  1  0
  6 25  1  0
  7 26  1  0
  8 27  1  0
 11 28  1  0
 11 29  1  0
 12 30  1  0
 12 31  1  0
 15 32  1  0
 19 33  1  0
 20 34  1  0
 21 35  1  0
M  END
>  <Energy>  (134) 
1131.5872569530034

>  <compound_id>  (134) 
62000

>  <target_id>  (134) 
1

>  <reference_id>  (134) 
106

>  <inspiration_ids>  (134) 
[106, 91]

>  <energy_score>  (134) 
1084.9102352431187

>  <distance_score>  (134) 
5.070810769774487

>  <path>  (134) 
/opt/xchem-fragalysis-2/maxwin/BulkDock/SCRATCH/511021/C62000-P106/C62000-P106.minimised.mol

>  <scratch_subdir>  (134) 
/opt/xchem-fragalysis-2/maxwin/BulkDock/SCRATCH/511021/C62000-P106

>  <fragmenstein_runtime>  (134) 
5.2790539264678955

>  <fragmenstein_outcome>  (134) 
too moved

>  <fragmenstein_mode>  (134) 
expansion

>  <fragmenstein_error>  (134) 


$$$$
C62001-P106
     RDKit          3D

 35 38  0  0  0  0  0  0  0  0999 V2000
    2.7379    1.2377   10.1455 O   0  0  0  0  0  0  0  0  0  0  0  0
    2.5326    0.0657   10.4691 C   0  0  0  0  0  0  0  0  0  0  0  0
    0.8684   -1.1122   10.1833 N   0  0  0  0  0  0  0  0  0  0  0  0
   -1.0780   -0.7760    9.3964 C   0  0  0  0  0  0  0  0  0  0  0  0
   -1.9109   -1.6785    8.4544 C   0  0  0  0  0  0  0  0  0  0  0  0
   -3.3096   -2.0475    8.1254 C   0  0  0  0  0  0  0  0  0  0  0  0
   -4.2790   -1.1475    8.2702 C   0  0  0  0  0  0  0  0  0  0  0  0
   -3.7522    0.0199    8.6305 C   0  0  0  0  0  0  0  0  0  0  0  0
   -2.2947    0.2032    9.0253 C   0  0  0  0  0  0  0  0  0  0  0  0
   -4.6382    1.0345    8.3070 O   0  0  0  0  0  0  0  0  0  0  0  0
   -5.7726    0.4133    7.6515 C   0  0  0  0  0  0  0  0  0  0  0  0
   -5.6935   -1.0774    7.8917 C   0  0  0  0  0  0  0  0  0  0  0  0
    3.8959   -1.0757   11.4504 N   0  0  0  0  0  0  0  0  0  0  0  0
    5.6405   -0.7790   11.9465 C   0  0  0  0  0  0  0  0  0  0  0  0
    6.2589   -1.8847   12.8327 C   0  0  0  0  0  0  0  0  0  0  0  0
    7.3972   -1.5157   13.4158 N   0  0  0  0  0  0  0  0  0  0  0  0
    7.9835   -1.7737   14.6627 C   0  0  0  0  0  0  0  0  0  0  0  0
    9.0154   -1.0117   15.0707 C   0  0  0  0  0  0  0  0  0  0  0  0
    9.4432    0.0344   14.0922 C   0  0  0  0  0  0  0  0  0  0  0  0
    8.8984    0.2622   12.9215 N   0  0  0  0  0  0  0  0  0  0  0  0
    7.7779   -0.5520   12.5423 C   0  0  0  0  0  0  0  0  0  0  0  0
    6.9710   -0.6782   11.4344 N   0  0  0  0  0  0  0  0  0  0  0  0
    1.0411   -1.9985   10.4721 H   0  0  0  0  0  0  0  0  0  0  0  0
   -1.4632   -1.6264    7.4538 H   0  0  0  0  0  0  0  0  0  0  0  0
   -3.5118   -2.9985    7.6389 H   0  0  0  0  0  0  0  0  0  0  0  0
   -2.1810    1.2740    8.8752 H   0  0  0  0  0  0  0  0  0  0  0  0
   -6.6983    0.8460    8.0449 H   0  0  0  0  0  0  0  0  0  0  0  0
   -5.7151    0.6508    6.5823 H   0  0  0  0  0  0  0  0  0  0  0  0
   -6.3574   -1.3461    8.7139 H   0  0  0  0  0  0  0  0  0  0  0  0
   -5.9604   -1.6561    7.0049 H   0  0  0  0  0  0  0  0  0  0  0  0
    3.5407   -2.0509   11.5393 H   0  0  0  0  0  0  0  0  0  0  0  0
    5.8028   -2.7495   13.2719 H   0  0  0  0  0  0  0  0  0  0  0  0
    7.5582   -2.5886   15.2140 H   0  0  0  0  0  0  0  0  0  0  0  0
    9.5972   -1.1405   15.9623 H   0  0  0  0  0  0  0  0  0  0  0  0
   10.3093    0.6430   14.4007 H   0  0  0  0  0  0  0  0  0  0  0  0
  1  2  2  0
  2  3  1  0
  3  4  1  0
  4  5  2  0
  5  6  1  0
  6  7  2  0
  7  8  1  0
  8  9  2  0
  8 10  1  0
 10 11  1  0
 11 12  1  0
  2 13  1  0
 13 14  1  0
 14 15  2  0
 15 16  1  0
 16 17  1  0
 17 18  2  0
 18 19  1  0
 19 20  2  0
 20 21  1  0
 21 22  2  0
  9  4  1  0
 22 14  1  0
 12  7  1  0
 21 16  1  0
  3 23  1  0
  5 24  1  0
  6 25  1  0
  9 26  1  0
 11 27  1  0
 11 28  1  0
 12 29  1  0
 12 30  1  0
 13 31  1  0
 15 32  1  0
 17 33  1  0
 18 34  1  0
 19 35  1  0
M  END
>  <Energy>  (135) 
772.30483908788653

>  <compound_id>  (135) 
62001

>  <target_id>  (135) 
1

>  <reference_id>  (135) 
106

>  <inspiration_ids>  (135) 
[106, 91]

>  <energy_score>  (135) 
737.2253027153359

>  <distance_score>  (135) 
4.807119597601751

>  <path>  (135) 
/opt/xchem-fragalysis-2/maxwin/BulkDock/SCRATCH/511021/C62001-P106/C62001-P106.minimised.mol

>  <scratch_subdir>  (135) 
/opt/xchem-fragalysis-2/maxwin/BulkDock/SCRATCH/511021/C62001-P106

>  <fragmenstein_runtime>  (135) 
5.673487901687622

>  <fragmenstein_outcome>  (135) 
too moved

>  <fragmenstein_mode>  (135) 
expansion

>  <fragmenstein_error>  (135) 


$$$$
C62002-P106
     RDKit          3D

 33 35  0  0  0  0  0  0  0  0999 V2000
   -1.3815   -1.7419    8.3460 O   0  0  0  0  0  0  0  0  0  0  0  0
   -1.2868   -0.8720    9.2821 C   0  0  0  0  0  0  0  0  0  0  0  0
   -2.8095    0.1894    9.2529 C   0  0  0  0  0  0  0  0  0  0  0  0
   -4.1759   -0.1817    8.1713 N   0  0  0  0  0  0  0  0  0  0  0  0
   -5.0755    0.8923    7.7480 C   0  0  0  0  0  0  0  0  0  0  0  0
   -6.0987    0.6651    6.8906 C   0  0  0  0  0  0  0  0  0  0  0  0
   -6.3515   -0.6928    6.4474 C   0  0  0  0  0  0  0  0  0  0  0  0
   -5.7718   -1.6928    7.1364 C   0  0  0  0  0  0  0  0  0  0  0  0
   -5.1612   -1.1553    8.3752 C   0  0  0  0  0  0  0  0  0  0  0  0
   -6.0245   -0.9927    9.2477 O   0  0  0  0  0  0  0  0  0  0  0  0
    0.5118   -0.9426   10.2297 O   0  0  0  0  0  0  0  0  0  0  0  0
    2.3354   -0.6611   11.2813 C   0  0  0  0  0  0  0  0  0  0  0  0
    4.4907   -0.7959   11.4207 C   0  0  0  0  0  0  0  0  0  0  0  0
    6.2877   -0.9141   11.3201 C   0  0  0  0  0  0  0  0  0  0  0  0
    6.9796   -1.8362   12.5686 N   0  0  0  0  0  0  0  0  0  0  0  0
    7.8763   -2.5594   13.5041 C   0  0  0  0  0  0  0  0  0  0  0  0
    8.7323   -2.1856   14.5094 C   0  0  0  0  0  0  0  0  0  0  0  0
    7.9484   -1.3200   15.2589 C   0  0  0  0  0  0  0  0  0  0  0  0
    6.7362   -1.2165   14.8608 N   0  0  0  0  0  0  0  0  0  0  0  0
    6.2783   -1.3827   13.5061 C   0  0  0  0  0  0  0  0  0  0  0  0
    5.6235   -0.4960   12.7541 N   0  0  0  0  0  0  0  0  0  0  0  0
   -2.5842    1.1754    8.8763 H   0  0  0  0  0  0  0  0  0  0  0  0
   -3.5346    0.0428   10.0211 H   0  0  0  0  0  0  0  0  0  0  0  0
   -4.9281    1.8970    8.0940 H   0  0  0  0  0  0  0  0  0  0  0  0
   -6.7650    1.4549    6.5618 H   0  0  0  0  0  0  0  0  0  0  0  0
   -6.9713   -0.8697    5.5767 H   0  0  0  0  0  0  0  0  0  0  0  0
   -5.8895   -2.7487    6.9653 H   0  0  0  0  0  0  0  0  0  0  0  0
    2.7105    0.3151   10.7245 H   0  0  0  0  0  0  0  0  0  0  0  0
    1.9025   -0.4139   12.2908 H   0  0  0  0  0  0  0  0  0  0  0  0
    6.9483   -0.8858   10.4824 H   0  0  0  0  0  0  0  0  0  0  0  0
    7.1731   -3.1562   14.0790 H   0  0  0  0  0  0  0  0  0  0  0  0
    9.4635   -2.8416   14.9477 H   0  0  0  0  0  0  0  0  0  0  0  0
    8.3315   -0.9069   16.1949 H   0  0  0  0  0  0  0  0  0  0  0  0
  1  2  2  0
  2  3  1  0
  3  4  1  0
  4  5  1  0
  5  6  2  0
  6  7  1  0
  7  8  2  0
  8  9  1  0
  9 10  2  0
  2 11  1  0
 11 12  1  0
 12 13  1  0
 13 14  2  0
 14 15  1  0
 15 16  1  0
 16 17  2  0
 17 18  1  0
 18 19  2  0
 19 20  1  0
 20 21  2  0
  9  4  1  0
 21 13  1  0
 20 15  1  0
  3 22  1  0
  3 23  1  0
  5 24  1  0
  6 25  1  0
  7 26  1  0
  8 27  1  0
 12 28  1  0
 12 29  1  0
 14 30  1  0
 16 31  1  0
 17 32  1  0
 18 33  1  0
M  END
>  <Energy>  (136) 
1256.7380492687087

>  <compound_id>  (136) 
62002

>  <target_id>  (136) 
1

>  <reference_id>  (136) 
106

>  <inspiration_ids>  (136) 
[106, 91]

>  <energy_score>  (136) 
1166.0259623741651

>  <distance_score>  (136) 
5.7023501547390785

>  <path>  (136) 
/opt/xchem-fragalysis-2/maxwin/BulkDock/SCRATCH/511021/C62002-P106/C62002-P106.minimised.mol

>  <scratch_subdir>  (136) 
/opt/xchem-fragalysis-2/maxwin/BulkDock/SCRATCH/511021/C62002-P106

>  <fragmenstein_runtime>  (136) 
5.330060243606567

>  <fragmenstein_outcome>  (136) 
too moved

>  <fragmenstein_mode>  (136) 
expansion

>  <fragmenstein_error>  (136) 


$$$$
C13394-P99
     RDKit          3D

 31 32  0  0  0  0  0  0  0  0999 V2000
    2.7801    0.6924   10.9323 C   0  0  0  0  0  0  0  0  0  0  0  0
    1.9105   -1.0565   11.1942 C   0  0  0  0  0  0  0  0  0  0  0  0
    0.3928   -1.3394    9.7595 C   0  0  0  0  0  0  0  0  0  0  0  0
   -1.3908   -1.2167    8.7903 N   0  0  0  0  0  0  0  0  0  0  0  0
   -2.4050   -0.1739    8.1729 C   0  0  0  0  0  0  0  0  0  0  0  0
   -3.4457   -0.7082    7.4629 C   0  0  0  0  0  0  0  0  0  0  0  0
   -3.3094   -2.0202    7.7033 C   0  0  0  0  0  0  0  0  0  0  0  0
   -2.3471   -2.2530    8.5665 N   0  0  0  0  0  0  0  0  0  0  0  0
    1.2514   -0.3992   12.6163 C   0  0  0  0  0  0  0  0  0  0  0  0
    1.3145    0.7504   13.0562 O   0  0  0  0  0  0  0  0  0  0  0  0
    0.6286   -1.1840   13.4436 O   0  0  0  0  0  0  0  0  0  0  0  0
    3.6533   -1.7264   11.2823 N   0  0  0  0  0  0  0  0  0  0  0  0
    4.0950   -2.9954   11.8290 C   0  0  0  0  0  0  0  0  0  0  0  0
    5.3576   -2.6352   12.3165 C   0  0  0  0  0  0  0  0  0  0  0  0
    6.1542   -1.3870   12.2195 C   0  0  0  0  0  0  0  0  0  0  0  0
    7.2582   -1.1081   13.3347 C   0  0  0  0  0  0  0  0  0  0  0  0
    8.0662   -2.1207   13.7437 F   0  0  0  0  0  0  0  0  0  0  0  0
    7.9610    0.0539   13.2491 F   0  0  0  0  0  0  0  0  0  0  0  0
    6.5994   -0.9592   14.5198 F   0  0  0  0  0  0  0  0  0  0  0  0
    5.1278   -0.6099   11.7635 N   0  0  0  0  0  0  0  0  0  0  0  0
    2.5352    1.1687    9.9712 H   0  0  0  0  0  0  0  0  0  0  0  0
    3.8261    0.6358   10.7158 H   0  0  0  0  0  0  0  0  0  0  0  0
    2.7054    1.4202   11.7435 H   0  0  0  0  0  0  0  0  0  0  0  0
    1.0018   -0.6802    9.1831 H   0  0  0  0  0  0  0  0  0  0  0  0
   -0.2177   -1.1330   10.6933 H   0  0  0  0  0  0  0  0  0  0  0  0
   -2.3295    0.8815    8.2899 H   0  0  0  0  0  0  0  0  0  0  0  0
   -4.2181   -0.1899    6.9187 H   0  0  0  0  0  0  0  0  0  0  0  0
   -3.9204   -2.8474    7.3688 H   0  0  0  0  0  0  0  0  0  0  0  0
    0.6891   -0.6176   14.2312 H   0  0  0  0  0  0  0  0  0  0  0  0
    3.4143   -3.7405   12.2122 H   0  0  0  0  0  0  0  0  0  0  0  0
    5.6987   -2.7341   13.3697 H   0  0  0  0  0  0  0  0  0  0  0  0
  1  2  1  0
  2  3  1  0
  3  4  1  0
  4  5  1  0
  5  6  2  0
  6  7  1  0
  7  8  2  0
  2  9  1  0
  9 10  2  0
  9 11  1  0
  2 12  1  0
 12 13  1  0
 13 14  2  0
 14 15  1  0
 15 16  1  0
 16 17  1  0
 16 18  1  0
 16 19  1  0
 15 20  2  0
  8  4  1  0
 20 12  1  0
  1 21  1  0
  1 22  1  0
  1 23  1  0
  3 24  1  0
  3 25  1  0
  5 26  1  0
  6 27  1  0
  7 28  1  0
 11 29  1  0
 13 30  1  0
 14 31  1  0
M  END
>  <Energy>  (137) 
697.80875050881752

>  <compound_id>  (137) 
13394

>  <target_id>  (137) 
1

>  <reference_id>  (137) 
99

>  <inspiration_ids>  (137) 
[99, 71]

>  <energy_score>  (137) 
613.176860818653

>  <distance_score>  (137) 
7.412293453044886

>  <path>  (137) 
/opt/xchem-fragalysis-2/maxwin/BulkDock/SCRATCH/511021/C13394-P99/C13394-P99.minimised.mol

>  <scratch_subdir>  (137) 
/opt/xchem-fragalysis-2/maxwin/BulkDock/SCRATCH/511021/C13394-P99

>  <fragmenstein_runtime>  (137) 
7.135748863220215

>  <fragmenstein_outcome>  (137) 
too moved

>  <fragmenstein_mode>  (137) 
expansion

>  <fragmenstein_error>  (137) 


$$$$
C13394-P71
     RDKit          3D

 31 32  0  0  0  0  0  0  0  0999 V2000
    3.2475    0.4370   11.1374 C   0  0  0  0  0  0  0  0  0  0  0  0
    2.2273   -1.1408   11.4824 C   0  0  0  0  0  0  0  0  0  0  0  0
    1.0328   -1.2138   10.1438 C   0  0  0  0  0  0  0  0  0  0  0  0
    0.1324   -2.0609    9.0247 N   0  0  0  0  0  0  0  0  0  0  0  0
   -1.7489   -1.5089    8.9084 C   0  0  0  0  0  0  0  0  0  0  0  0
   -2.3050   -0.3096    8.8034 C   0  0  0  0  0  0  0  0  0  0  0  0
   -2.1837   -0.9344    7.6303 C   0  0  0  0  0  0  0  0  0  0  0  0
   -0.9627   -1.6322    7.4672 N   0  0  0  0  0  0  0  0  0  0  0  0
    1.4391   -0.4879   12.9279 C   0  0  0  0  0  0  0  0  0  0  0  0
    1.5124    0.6491   13.3737 O   0  0  0  0  0  0  0  0  0  0  0  0
    0.7715   -1.3442   13.6619 O   0  0  0  0  0  0  0  0  0  0  0  0
    3.3846   -2.7221   11.8796 N   0  0  0  0  0  0  0  0  0  0  0  0
    3.3709   -3.4197   13.4057 C   0  0  0  0  0  0  0  0  0  0  0  0
    4.7690   -2.9841   14.3198 C   0  0  0  0  0  0  0  0  0  0  0  0
    5.7550   -2.7331   13.3685 C   0  0  0  0  0  0  0  0  0  0  0  0
    7.0880   -2.0776   13.7484 C   0  0  0  0  0  0  0  0  0  0  0  0
    8.1225   -2.8594   14.1011 F   0  0  0  0  0  0  0  0  0  0  0  0
    7.4429   -1.1090   12.8835 F   0  0  0  0  0  0  0  0  0  0  0  0
    6.9310   -1.3968   14.9276 F   0  0  0  0  0  0  0  0  0  0  0  0
    5.0107   -3.1639   12.1790 N   0  0  0  0  0  0  0  0  0  0  0  0
    2.9072    0.9772   10.2431 H   0  0  0  0  0  0  0  0  0  0  0  0
    4.2735    0.1517   10.9552 H   0  0  0  0  0  0  0  0  0  0  0  0
    3.1752    1.2011   11.9233 H   0  0  0  0  0  0  0  0  0  0  0  0
    0.2065   -1.0092   10.7647 H   0  0  0  0  0  0  0  0  0  0  0  0
    1.4123   -0.3633    9.6126 H   0  0  0  0  0  0  0  0  0  0  0  0
   -2.3904   -2.4393    8.8839 H   0  0  0  0  0  0  0  0  0  0  0  0
   -3.2799    0.0705    9.0714 H   0  0  0  0  0  0  0  0  0  0  0  0
   -2.9178   -0.8466    6.8334 H   0  0  0  0  0  0  0  0  0  0  0  0
    0.7651   -0.8692   14.5094 H   0  0  0  0  0  0  0  0  0  0  0  0
    2.4085   -3.8121   13.7022 H   0  0  0  0  0  0  0  0  0  0  0  0
    4.9424   -3.2081   15.3590 H   0  0  0  0  0  0  0  0  0  0  0  0
  1  2  1  0
  2  3  1  0
  3  4  1  0
  4  5  1  0
  5  6  2  0
  6  7  1  0
  7  8  2  0
  2  9  1  0
  9 10  2  0
  9 11  1  0
  2 12  1  0
 12 13  1  0
 13 14  2  0
 14 15  1  0
 15 16  1  0
 16 17  1  0
 16 18  1  0
 16 19  1  0
 15 20  2  0
  8  4  1  0
 20 12  1  0
  1 21  1  0
  1 22  1  0
  1 23  1  0
  3 24  1  0
  3 25  1  0
  5 26  1  0
  6 27  1  0
  7 28  1  0
 11 29  1  0
 13 30  1  0
 14 31  1  0
M  END
>  <Energy>  (138) 
885.75533678917316

>  <compound_id>  (138) 
13394

>  <target_id>  (138) 
1

>  <reference_id>  (138) 
71

>  <inspiration_ids>  (138) 
[99, 71]

>  <energy_score>  (138) 
801.1234470990082

>  <distance_score>  (138) 
7.8378246561939084

>  <path>  (138) 
/opt/xchem-fragalysis-2/maxwin/BulkDock/SCRATCH/511021/C13394-P71/C13394-P71.minimised.mol

>  <scratch_subdir>  (138) 
/opt/xchem-fragalysis-2/maxwin/BulkDock/SCRATCH/511021/C13394-P71

>  <fragmenstein_runtime>  (138) 
9.3522367477417

>  <fragmenstein_outcome>  (138) 
too moved

>  <fragmenstein_mode>  (138) 
expansion

>  <fragmenstein_error>  (138) 


$$$$
C11039-P69
     RDKit          3D

 49 52  0  0  0  0  0  0  0  0999 V2000
   -5.7375   -2.3669   24.5520 O   0  0  0  0  0  0  0  0  0  0  0  0
   -4.4892   -2.3653   24.3827 C   0  0  0  0  0  0  0  0  0  0  0  0
   -3.6341   -1.6535   25.9817 C   0  0  0  0  0  0  0  0  0  0  0  0
   -3.0225   -0.2310   26.9013 C   0  0  0  0  0  0  0  0  0  0  0  0
   -1.5895    0.0974   27.5867 C   0  0  0  0  0  0  0  0  0  0  0  0
   -0.5931   -0.1299   26.9583 O   0  0  0  0  0  0  0  0  0  0  0  0
   -1.7529    0.6108   28.9449 N   0  0  0  0  0  0  0  0  0  0  0  0
   -1.8187   -0.5423   29.9419 C   0  0  0  0  0  0  0  0  0  0  0  0
   -2.5997   -0.2369   31.2344 C   0  0  0  0  0  0  0  0  0  0  0  0
   -1.6957    0.4070   32.1737 N   0  0  0  0  0  0  0  0  0  0  0  0
   -0.9791   -0.4897   32.9844 C   0  0  0  0  0  0  0  0  0  0  0  0
   -0.2665   -0.0005   34.0813 C   0  0  0  0  0  0  0  0  0  0  0  0
    0.4016   -0.8833   34.9287 C   0  0  0  0  0  0  0  0  0  0  0  0
    0.3349   -2.2441   34.6750 C   0  0  0  0  0  0  0  0  0  0  0  0
   -0.3939   -2.6590   33.5773 C   0  0  0  0  0  0  0  0  0  0  0  0
   -1.0305   -1.8158   32.7327 N   0  0  0  0  0  0  0  0  0  0  0  0
   -0.8826    1.3976   31.4734 C   0  0  0  0  0  0  0  0  0  0  0  0
   -0.7141    1.1241   29.9455 C   0  0  0  0  0  0  0  0  0  0  0  0
   -3.6861   -2.9008   23.2650 N   0  0  0  0  0  0  0  0  0  0  0  0
   -4.1204   -3.7634   21.9451 C   0  0  0  0  0  0  0  0  0  0  0  0
   -3.7472   -5.0289   21.4676 N   0  0  0  0  0  0  0  0  0  0  0  0
   -3.8086   -5.3763   19.8361 C   0  0  0  0  0  0  0  0  0  0  0  0
   -3.4995   -6.5817   18.9164 C   0  0  0  0  0  0  0  0  0  0  0  0
   -4.3191   -6.8738   17.8772 C   0  0  0  0  0  0  0  0  0  0  0  0
   -5.2095   -5.9620   17.5535 C   0  0  0  0  0  0  0  0  0  0  0  0
   -4.6567   -4.7483   17.7707 C   0  0  0  0  0  0  0  0  0  0  0  0
   -4.3794   -4.3550   19.2397 C   0  0  0  0  0  0  0  0  0  0  0  0
   -5.4073   -4.5030   21.2023 S   0  0  0  0  0  0  0  0  0  0  0  0
   -4.4113   -2.0021   26.6932 H   0  0  0  0  0  0  0  0  0  0  0  0
   -2.9863   -2.3071   26.4923 H   0  0  0  0  0  0  0  0  0  0  0  0
   -3.4917   -0.5096   27.8328 H   0  0  0  0  0  0  0  0  0  0  0  0
   -3.4016    0.7006   26.4679 H   0  0  0  0  0  0  0  0  0  0  0  0
   -0.8594   -1.0351   30.1476 H   0  0  0  0  0  0  0  0  0  0  0  0
   -2.4359   -1.3009   29.4533 H   0  0  0  0  0  0  0  0  0  0  0  0
   -3.4085    0.4657   31.0166 H   0  0  0  0  0  0  0  0  0  0  0  0
   -3.0740   -1.1356   31.6473 H   0  0  0  0  0  0  0  0  0  0  0  0
   -0.2592    1.0620   34.2992 H   0  0  0  0  0  0  0  0  0  0  0  0
    0.9455   -0.5096   35.7908 H   0  0  0  0  0  0  0  0  0  0  0  0
    0.8197   -2.9652   35.3227 H   0  0  0  0  0  0  0  0  0  0  0  0
   -0.4984   -3.7151   33.3436 H   0  0  0  0  0  0  0  0  0  0  0  0
    0.1197    1.5125   31.9067 H   0  0  0  0  0  0  0  0  0  0  0  0
   -1.3493    2.3628   31.6150 H   0  0  0  0  0  0  0  0  0  0  0  0
   -0.4676    2.1069   29.5141 H   0  0  0  0  0  0  0  0  0  0  0  0
    0.2339    0.5843   29.7698 H   0  0  0  0  0  0  0  0  0  0  0  0
   -2.7239   -2.6528   23.4138 H   0  0  0  0  0  0  0  0  0  0  0  0
   -2.9327   -7.4548   19.2112 H   0  0  0  0  0  0  0  0  0  0  0  0
   -4.2812   -7.8592   17.4625 H   0  0  0  0  0  0  0  0  0  0  0  0
   -6.1283   -6.1048   17.0002 H   0  0  0  0  0  0  0  0  0  0  0  0
   -4.6577   -4.0634   16.9436 H   0  0  0  0  0  0  0  0  0  0  0  0
  1  2  2  0
  2  3  1  0
  3  4  1  0
  4  5  1  0
  5  6  2  0
  5  7  1  0
  7  8  1  0
  8  9  1  0
  9 10  1  0
 10 11  1  0
 11 12  2  0
 12 13  1  0
 13 14  2  0
 14 15  1  0
 15 16  2  0
 10 17  1  0
 17 18  1  0
  2 19  1  0
 19 20  1  0
 20 21  2  0
 21 22  1  0
 22 23  2  0
 23 24  1  0
 24 25  2  0
 25 26  1  0
 26 27  2  0
 27 28  1  0
 18  7  1  0
 28 20  1  0
 16 11  1  0
 27 22  1  0
  3 29  1  0
  3 30  1  0
  4 31  1  0
  4 32  1  0
  8 33  1  0
  8 34  1  0
  9 35  1  0
  9 36  1  0
 12 37  1  0
 13 38  1  0
 14 39  1  0
 15 40  1  0
 17 41  1  0
 17 42  1  0
 18 43  1  0
 18 44  1  0
 19 45  1  0
 23 46  1  0
 24 47  1  0
 25 48  1  0
 26 49  1  0
M  END
>  <Energy>  (139) 
508.24378800158257

>  <compound_id>  (139) 
11039

>  <target_id>  (139) 
1

>  <reference_id>  (139) 
69

>  <inspiration_ids>  (139) 
[69, 59]

>  <energy_score>  (139) 
411.82484673526403

>  <distance_score>  (139) 
10.740788099793852

>  <path>  (139) 
/opt/xchem-fragalysis-2/maxwin/BulkDock/SCRATCH/511021/C11039-P69/C11039-P69.minimised.mol

>  <scratch_subdir>  (139) 
/opt/xchem-fragalysis-2/maxwin/BulkDock/SCRATCH/511021/C11039-P69

>  <fragmenstein_runtime>  (139) 
39.53857398033142

>  <fragmenstein_outcome>  (139) 
too moved

>  <fragmenstein_mode>  (139) 
expansion

>  <fragmenstein_error>  (139) 


$$$$
C11039-P59
     RDKit          3D

 49 52  0  0  0  0  0  0  0  0999 V2000
   -3.7513   -2.5818   19.0562 O   0  0  0  0  0  0  0  0  0  0  0  0
   -4.4717   -3.5460   18.9346 C   0  0  0  0  0  0  0  0  0  0  0  0
   -5.1949   -4.3231   20.6718 C   0  0  0  0  0  0  0  0  0  0  0  0
   -6.5559   -3.4004   21.9779 C   0  0  0  0  0  0  0  0  0  0  0  0
   -7.2571   -3.7255   23.9885 C   0  0  0  0  0  0  0  0  0  0  0  0
   -7.6586   -4.8084   24.0728 O   0  0  0  0  0  0  0  0  0  0  0  0
   -7.2705   -2.9712   25.5698 N   0  0  0  0  0  0  0  0  0  0  0  0
   -8.5461   -2.0851   26.2264 C   0  0  0  0  0  0  0  0  0  0  0  0
   -8.7166   -1.8712   28.1606 C   0  0  0  0  0  0  0  0  0  0  0  0
   -7.7712   -2.8309   29.3367 N   0  0  0  0  0  0  0  0  0  0  0  0
   -7.0976   -2.2682   30.9164 C   0  0  0  0  0  0  0  0  0  0  0  0
   -5.7332   -2.6446   31.4196 C   0  0  0  0  0  0  0  0  0  0  0  0
   -5.0270   -2.1566   32.5678 C   0  0  0  0  0  0  0  0  0  0  0  0
   -5.6536   -1.2479   33.3716 C   0  0  0  0  0  0  0  0  0  0  0  0
   -6.8670   -0.8241   32.9083 C   0  0  0  0  0  0  0  0  0  0  0  0
   -7.4311   -1.2032   31.7059 N   0  0  0  0  0  0  0  0  0  0  0  0
   -6.7589   -3.4565   28.2457 C   0  0  0  0  0  0  0  0  0  0  0  0
   -7.5965   -3.5196   26.9714 C   0  0  0  0  0  0  0  0  0  0  0  0
   -5.0549   -4.1121   17.2651 N   0  0  0  0  0  0  0  0  0  0  0  0
   -4.8801   -3.3546   15.5832 C   0  0  0  0  0  0  0  0  0  0  0  0
   -5.6688   -3.0859   14.1285 N   0  0  0  0  0  0  0  0  0  0  0  0
   -5.9670   -1.2781   13.6185 C   0  0  0  0  0  0  0  0  0  0  0  0
   -5.8151   -0.6641   11.8938 C   0  0  0  0  0  0  0  0  0  0  0  0
   -6.5981   -0.1824   10.9072 C   0  0  0  0  0  0  0  0  0  0  0  0
   -6.7463    0.8874   11.5722 C   0  0  0  0  0  0  0  0  0  0  0  0
   -6.6750    0.8620   13.1580 C   0  0  0  0  0  0  0  0  0  0  0  0
   -5.9815   -0.1563   14.3616 C   0  0  0  0  0  0  0  0  0  0  0  0
   -6.4650   -1.7005   14.8237 S   0  0  0  0  0  0  0  0  0  0  0  0
   -5.8840   -5.0712   20.3403 H   0  0  0  0  0  0  0  0  0  0  0  0
   -4.4029   -4.7400   21.2746 H   0  0  0  0  0  0  0  0  0  0  0  0
   -5.8227   -2.7145   22.2098 H   0  0  0  0  0  0  0  0  0  0  0  0
   -7.3055   -2.9642   21.3164 H   0  0  0  0  0  0  0  0  0  0  0  0
   -9.4965   -2.4809   25.8345 H   0  0  0  0  0  0  0  0  0  0  0  0
   -8.4176   -1.0683   25.8366 H   0  0  0  0  0  0  0  0  0  0  0  0
   -8.7020   -0.8190   28.3815 H   0  0  0  0  0  0  0  0  0  0  0  0
   -9.7397   -2.2220   28.3496 H   0  0  0  0  0  0  0  0  0  0  0  0
   -5.1260   -3.2542   30.7950 H   0  0  0  0  0  0  0  0  0  0  0  0
   -4.0274   -2.5123   32.7935 H   0  0  0  0  0  0  0  0  0  0  0  0
   -5.2223   -0.8743   34.2891 H   0  0  0  0  0  0  0  0  0  0  0  0
   -7.4569   -0.1018   33.4642 H   0  0  0  0  0  0  0  0  0  0  0  0
   -6.3127   -4.4082   28.4548 H   0  0  0  0  0  0  0  0  0  0  0  0
   -5.7966   -3.0013   28.0441 H   0  0  0  0  0  0  0  0  0  0  0  0
   -8.6533   -3.8581   27.1379 H   0  0  0  0  0  0  0  0  0  0  0  0
   -7.4218   -4.5908   26.7562 H   0  0  0  0  0  0  0  0  0  0  0  0
   -5.5539   -4.9591   17.3713 H   0  0  0  0  0  0  0  0  0  0  0  0
   -4.7583   -0.4874   11.5229 H   0  0  0  0  0  0  0  0  0  0  0  0
   -6.5300   -0.1812    9.8290 H   0  0  0  0  0  0  0  0  0  0  0  0
   -7.5176    1.4511   10.9946 H   0  0  0  0  0  0  0  0  0  0  0  0
   -7.2404   -0.0748   12.8783 H   0  0  0  0  0  0  0  0  0  0  0  0
  1  2  2  0
  2  3  1  0
  3  4  1  0
  4  5  1  0
  5  6  2  0
  5  7  1  0
  7  8  1  0
  8  9  1  0
  9 10  1  0
 10 11  1  0
 11 12  2  0
 12 13  1  0
 13 14  2  0
 14 15  1  0
 15 16  2  0
 10 17  1  0
 17 18  1  0
  2 19  1  0
 19 20  1  0
 20 21  2  0
 21 22  1  0
 22 23  2  0
 23 24  1  0
 24 25  2  0
 25 26  1  0
 26 27  2  0
 27 28  1  0
 18  7  1  0
 28 20  1  0
 16 11  1  0
 27 22  1  0
  3 29  1  0
  3 30  1  0
  4 31  1  0
  4 32  1  0
  8 33  1  0
  8 34  1  0
  9 35  1  0
  9 36  1  0
 12 37  1  0
 13 38  1  0
 14 39  1  0
 15 40  1  0
 17 41  1  0
 17 42  1  0
 18 43  1  0
 18 44  1  0
 19 45  1  0
 23 46  1  0
 24 47  1  0
 25 48  1  0
 26 49  1  0
M  END
>  <Energy>  (140) 
1621.7755919217911

>  <compound_id>  (140) 
11039

>  <target_id>  (140) 
1

>  <reference_id>  (140) 
59

>  <inspiration_ids>  (140) 
[69, 59]

>  <energy_score>  (140) 
1525.3566506554403

>  <distance_score>  (140) 
7.732687245953593

>  <path>  (140) 
/opt/xchem-fragalysis-2/maxwin/BulkDock/SCRATCH/511021/C11039-P59/C11039-P59.minimised.mol

>  <scratch_subdir>  (140) 
/opt/xchem-fragalysis-2/maxwin/BulkDock/SCRATCH/511021/C11039-P59

>  <fragmenstein_runtime>  (140) 
35.62048625946045

>  <fragmenstein_outcome>  (140) 
too moved

>  <fragmenstein_mode>  (140) 
expansion

>  <fragmenstein_error>  (140) 


$$$$
C11041-P69
     RDKit          3D

 44 47  0  0  0  0  0  0  0  0999 V2000
    0.0233    1.9601   16.1082 O   0  0  0  0  0  0  0  0  0  0  0  0
    0.6741    0.9549   15.9917 C   0  0  0  0  0  0  0  0  0  0  0  0
    1.6627    0.4800   17.1921 C   0  0  0  0  0  0  0  0  0  0  0  0
    1.1911    0.5854   18.6486 N   0  0  0  0  0  0  0  0  0  0  0  0
    1.9965   -0.3581   19.4941 C   0  0  0  0  0  0  0  0  0  0  0  0
    1.6788   -0.3765   21.0096 C   0  0  0  0  0  0  0  0  0  0  0  0
    1.6967    0.9664   21.6321 N   0  0  0  0  0  0  0  0  0  0  0  0
    1.2011    0.9392   22.9656 C   0  0  0  0  0  0  0  0  0  0  0  0
    1.1904    2.1075   23.7331 C   0  0  0  0  0  0  0  0  0  0  0  0
    0.6698    2.0930   25.0286 C   0  0  0  0  0  0  0  0  0  0  0  0
    0.1748    0.9079   25.5479 C   0  0  0  0  0  0  0  0  0  0  0  0
    0.2441   -0.2169   24.7514 C   0  0  0  0  0  0  0  0  0  0  0  0
    0.7537   -0.2218   23.4980 N   0  0  0  0  0  0  0  0  0  0  0  0
    1.1064    2.0421   20.8011 C   0  0  0  0  0  0  0  0  0  0  0  0
    1.4181    1.9200   19.2629 C   0  0  0  0  0  0  0  0  0  0  0  0
    0.7984    0.0057   14.8470 N   0  0  0  0  0  0  0  0  0  0  0  0
    0.1268   -0.0437   13.6147 C   0  0  0  0  0  0  0  0  0  0  0  0
    0.4758   -0.9515   12.7260 N   0  0  0  0  0  0  0  0  0  0  0  0
   -0.3462   -0.9232   11.6267 C   0  0  0  0  0  0  0  0  0  0  0  0
   -0.0580   -1.1382   10.2068 C   0  0  0  0  0  0  0  0  0  0  0  0
   -1.5512   -0.9647    8.9320 C   0  0  0  0  0  0  0  0  0  0  0  0
   -2.7249   -0.4736    8.6470 C   0  0  0  0  0  0  0  0  0  0  0  0
   -2.6659   -0.0722    9.8684 C   0  0  0  0  0  0  0  0  0  0  0  0
   -1.6809   -0.2236   11.6503 C   0  0  0  0  0  0  0  0  0  0  0  0
   -1.2537    0.9411   13.1905 S   0  0  0  0  0  0  0  0  0  0  0  0
    1.8630   -0.5827   17.0104 H   0  0  0  0  0  0  0  0  0  0  0  0
    2.6107    1.0157   17.0622 H   0  0  0  0  0  0  0  0  0  0  0  0
    3.0625   -0.1157   19.3759 H   0  0  0  0  0  0  0  0  0  0  0  0
    1.8723   -1.3770   19.1110 H   0  0  0  0  0  0  0  0  0  0  0  0
    2.4341   -1.0041   21.5007 H   0  0  0  0  0  0  0  0  0  0  0  0
    0.7157   -0.8626   21.1636 H   0  0  0  0  0  0  0  0  0  0  0  0
    1.5949    3.0329   23.3398 H   0  0  0  0  0  0  0  0  0  0  0  0
    0.6519    3.0035   25.6201 H   0  0  0  0  0  0  0  0  0  0  0  0
   -0.2523    0.8573   26.5430 H   0  0  0  0  0  0  0  0  0  0  0  0
   -0.1236   -1.1763   25.1062 H   0  0  0  0  0  0  0  0  0  0  0  0
    0.0249    2.0886   20.9484 H   0  0  0  0  0  0  0  0  0  0  0  0
    1.5096    3.0112   21.1193 H   0  0  0  0  0  0  0  0  0  0  0  0
    2.4690    2.2078   19.1194 H   0  0  0  0  0  0  0  0  0  0  0  0
    0.8181    2.6671   18.7322 H   0  0  0  0  0  0  0  0  0  0  0  0
    1.4981   -0.6875   15.0644 H   0  0  0  0  0  0  0  0  0  0  0  0
    0.8884   -1.6065    9.9073 H   0  0  0  0  0  0  0  0  0  0  0  0
   -1.5298   -1.5401    7.9956 H   0  0  0  0  0  0  0  0  0  0  0  0
   -3.4415   -0.5360    7.8715 H   0  0  0  0  0  0  0  0  0  0  0  0
   -3.8391    0.0648    9.9722 H   0  0  0  0  0  0  0  0  0  0  0  0
  1  2  2  0
  2  3  1  0
  3  4  1  0
  4  5  1  0
  5  6  1  0
  6  7  1  0
  7  8  1  0
  8  9  2  0
  9 10  1  0
 10 11  2  0
 11 12  1  0
 12 13  2  0
  7 14  1  0
 14 15  1  0
  2 16  1  0
 16 17  1  0
 17 18  2  0
 18 19  1  0
 19 20  2  0
 20 21  1  0
 21 22  2  0
 22 23  1  0
 23 24  2  0
 24 25  1  0
 15  4  1  0
 25 17  1  0
 13  8  1  0
 24 19  1  0
  3 26  1  0
  3 27  1  0
  5 28  1  0
  5 29  1  0
  6 30  1  0
  6 31  1  0
  9 32  1  0
 10 33  1  0
 11 34  1  0
 12 35  1  0
 14 36  1  0
 14 37  1  0
 15 38  1  0
 15 39  1  0
 16 40  1  0
 20 41  1  0
 21 42  1  0
 22 43  1  0
 23 44  1  0
M  END
>  <Energy>  (141) 
419.84889884347899

>  <compound_id>  (141) 
11041

>  <target_id>  (141) 
1

>  <reference_id>  (141) 
69

>  <inspiration_ids>  (141) 
[69, 59]

>  <energy_score>  (141) 
247.4407107923132

>  <distance_score>  (141) 
12.007278505541343

>  <path>  (141) 
/opt/xchem-fragalysis-2/maxwin/BulkDock/SCRATCH/511021/C11041-P69/C11041-P69.minimised.mol

>  <scratch_subdir>  (141) 
/opt/xchem-fragalysis-2/maxwin/BulkDock/SCRATCH/511021/C11041-P69

>  <fragmenstein_runtime>  (141) 
23.59783124923706

>  <fragmenstein_outcome>  (141) 
too moved

>  <fragmenstein_mode>  (141) 
expansion

>  <fragmenstein_error>  (141) 


$$$$
C11041-P59
     RDKit          3D

 44 47  0  0  0  0  0  0  0  0999 V2000
   -8.1633   -2.9307   20.7628 O   0  0  0  0  0  0  0  0  0  0  0  0
   -7.0694   -3.2400   20.4951 C   0  0  0  0  0  0  0  0  0  0  0  0
   -6.0557   -3.0706   21.9431 C   0  0  0  0  0  0  0  0  0  0  0  0
   -6.3725   -2.7689   23.8808 N   0  0  0  0  0  0  0  0  0  0  0  0
   -7.4966   -2.0631   25.0722 C   0  0  0  0  0  0  0  0  0  0  0  0
   -7.1654   -2.6033   26.9478 C   0  0  0  0  0  0  0  0  0  0  0  0
   -5.1076   -2.7953   27.1569 N   0  0  0  0  0  0  0  0  0  0  0  0
   -3.6233   -2.0084   27.8913 C   0  0  0  0  0  0  0  0  0  0  0  0
   -2.8291   -0.8837   27.3846 C   0  0  0  0  0  0  0  0  0  0  0  0
   -1.6345   -0.4183   27.9853 C   0  0  0  0  0  0  0  0  0  0  0  0
   -1.1172   -1.0400   29.0951 C   0  0  0  0  0  0  0  0  0  0  0  0
   -1.8144   -2.1154   29.5656 C   0  0  0  0  0  0  0  0  0  0  0  0
   -2.9681   -2.5747   29.0156 N   0  0  0  0  0  0  0  0  0  0  0  0
   -4.2346   -2.4901   25.9223 C   0  0  0  0  0  0  0  0  0  0  0  0
   -4.5593   -2.9189   24.6100 C   0  0  0  0  0  0  0  0  0  0  0  0
   -6.5952   -3.9863   18.8760 N   0  0  0  0  0  0  0  0  0  0  0  0
   -7.8579   -4.7225   17.1707 C   0  0  0  0  0  0  0  0  0  0  0  0
   -7.9293   -5.7523   16.1032 N   0  0  0  0  0  0  0  0  0  0  0  0
   -9.1063   -5.3383   15.1727 C   0  0  0  0  0  0  0  0  0  0  0  0
   -9.0807   -4.8178   13.8590 C   0  0  0  0  0  0  0  0  0  0  0  0
  -10.2167   -4.2462   13.2681 C   0  0  0  0  0  0  0  0  0  0  0  0
  -11.3457   -3.9787   14.0206 C   0  0  0  0  0  0  0  0  0  0  0  0
  -11.4171   -4.4189   15.3110 C   0  0  0  0  0  0  0  0  0  0  0  0
  -10.2736   -5.0277   15.8108 C   0  0  0  0  0  0  0  0  0  0  0  0
  -10.0194   -5.5454   17.3506 S   0  0  0  0  0  0  0  0  0  0  0  0
   -5.0401   -3.5321   21.7734 H   0  0  0  0  0  0  0  0  0  0  0  0
   -6.4696   -4.0767   22.0687 H   0  0  0  0  0  0  0  0  0  0  0  0
   -8.4904   -2.4403   24.8127 H   0  0  0  0  0  0  0  0  0  0  0  0
   -7.4223   -0.9806   25.0508 H   0  0  0  0  0  0  0  0  0  0  0  0
   -7.8155   -3.4359   27.3106 H   0  0  0  0  0  0  0  0  0  0  0  0
   -7.6314   -1.8100   27.6000 H   0  0  0  0  0  0  0  0  0  0  0  0
   -3.0387   -0.2498   26.5309 H   0  0  0  0  0  0  0  0  0  0  0  0
   -1.1209    0.4402   27.5579 H   0  0  0  0  0  0  0  0  0  0  0  0
   -0.2021   -0.7054   29.5657 H   0  0  0  0  0  0  0  0  0  0  0  0
   -1.4690   -2.6755   30.4282 H   0  0  0  0  0  0  0  0  0  0  0  0
   -3.9681   -1.4929   25.6478 H   0  0  0  0  0  0  0  0  0  0  0  0
   -3.1878   -2.8361   25.9314 H   0  0  0  0  0  0  0  0  0  0  0  0
   -3.7722   -2.4317   23.9908 H   0  0  0  0  0  0  0  0  0  0  0  0
   -3.8667   -3.7500   24.3590 H   0  0  0  0  0  0  0  0  0  0  0  0
   -5.5731   -4.2680   18.9030 H   0  0  0  0  0  0  0  0  0  0  0  0
   -8.1539   -4.8242   13.3133 H   0  0  0  0  0  0  0  0  0  0  0  0
  -10.1811   -3.9576   12.2257 H   0  0  0  0  0  0  0  0  0  0  0  0
  -12.1716   -3.3841   13.6485 H   0  0  0  0  0  0  0  0  0  0  0  0
  -12.2791   -4.2180   15.9378 H   0  0  0  0  0  0  0  0  0  0  0  0
  1  2  2  0
  2  3  1  0
  3  4  1  0
  4  5  1  0
  5  6  1  0
  6  7  1  0
  7  8  1  0
  8  9  2  0
  9 10  1  0
 10 11  2  0
 11 12  1  0
 12 13  2  0
  7 14  1  0
 14 15  1  0
  2 16  1  0
 16 17  1  0
 17 18  2  0
 18 19  1  0
 19 20  2  0
 20 21  1  0
 21 22  2  0
 22 23  1  0
 23 24  2  0
 24 25  1  0
 15  4  1  0
 25 17  1  0
 13  8  1  0
 24 19  1  0
  3 26  1  0
  3 27  1  0
  5 28  1  0
  5 29  1  0
  6 30  1  0
  6 31  1  0
  9 32  1  0
 10 33  1  0
 11 34  1  0
 12 35  1  0
 14 36  1  0
 14 37  1  0
 15 38  1  0
 15 39  1  0
 16 40  1  0
 20 41  1  0
 21 42  1  0
 22 43  1  0
 23 44  1  0
M  END
>  <Energy>  (142) 
1282.6701005516134

>  <compound_id>  (142) 
11041

>  <target_id>  (142) 
1

>  <reference_id>  (142) 
59

>  <inspiration_ids>  (142) 
[69, 59]

>  <energy_score>  (142) 
1110.2619125004342

>  <distance_score>  (142) 
9.786311162098585

>  <path>  (142) 
/opt/xchem-fragalysis-2/maxwin/BulkDock/SCRATCH/511021/C11041-P59/C11041-P59.minimised.mol

>  <scratch_subdir>  (142) 
/opt/xchem-fragalysis-2/maxwin/BulkDock/SCRATCH/511021/C11041-P59

>  <fragmenstein_runtime>  (142) 
27.81790828704834

>  <fragmenstein_outcome>  (142) 
too moved

>  <fragmenstein_mode>  (142) 
expansion

>  <fragmenstein_error>  (142) 


$$$$
C11043-P69
     RDKit          3D

 52 55  0  0  0  0  0  0  0  0999 V2000
   -8.1982    0.0127   18.2078 O   0  0  0  0  0  0  0  0  0  0  0  0
   -7.8852   -1.1622   18.2049 C   0  0  0  0  0  0  0  0  0  0  0  0
   -8.1002   -2.0303   20.4318 C   0  0  0  0  0  0  0  0  0  0  0  0
   -8.4091   -1.9230   22.8466 C   0  0  0  0  0  0  0  0  0  0  0  0
   -8.0596   -1.4712   25.1727 C   0  0  0  0  0  0  0  0  0  0  0  0
   -7.6716   -1.5079   27.5152 C   0  0  0  0  0  0  0  0  0  0  0  0
   -7.4857   -2.6576   27.8421 O   0  0  0  0  0  0  0  0  0  0  0  0
   -7.2925   -0.2463   29.2318 N   0  0  0  0  0  0  0  0  0  0  0  0
   -5.3689    0.8946   29.9984 C   0  0  0  0  0  0  0  0  0  0  0  0
   -3.7200    0.0973   30.7468 C   0  0  0  0  0  0  0  0  0  0  0  0
   -4.1133   -1.0207   31.6964 N   0  0  0  0  0  0  0  0  0  0  0  0
   -3.0232   -1.2902   32.5196 C   0  0  0  0  0  0  0  0  0  0  0  0
   -1.8855   -1.8567   31.9294 C   0  0  0  0  0  0  0  0  0  0  0  0
   -0.7202   -2.0038   32.6667 C   0  0  0  0  0  0  0  0  0  0  0  0
   -0.7223   -1.5908   33.9867 C   0  0  0  0  0  0  0  0  0  0  0  0
   -1.8943   -1.0583   34.5043 C   0  0  0  0  0  0  0  0  0  0  0  0
   -3.0385   -0.8895   33.8015 N   0  0  0  0  0  0  0  0  0  0  0  0
   -5.5027   -0.9556   32.2846 C   0  0  0  0  0  0  0  0  0  0  0  0
   -6.9053   -0.6978   31.1310 C   0  0  0  0  0  0  0  0  0  0  0  0
   -7.0540   -1.7997   16.3543 N   0  0  0  0  0  0  0  0  0  0  0  0
   -6.5699   -0.9052   14.8457 C   0  0  0  0  0  0  0  0  0  0  0  0
   -6.2558   -1.0595   13.4928 N   0  0  0  0  0  0  0  0  0  0  0  0
   -7.4972   -0.7389   12.2504 C   0  0  0  0  0  0  0  0  0  0  0  0
   -8.3797   -0.3596   10.9036 C   0  0  0  0  0  0  0  0  0  0  0  0
   -8.3029    0.0408    9.5324 C   0  0  0  0  0  0  0  0  0  0  0  0
   -7.0875    0.0118    8.9979 C   0  0  0  0  0  0  0  0  0  0  0  0
   -6.1667   -0.2663    9.9610 C   0  0  0  0  0  0  0  0  0  0  0  0
   -6.3759   -0.3914   11.6684 C   0  0  0  0  0  0  0  0  0  0  0  0
   -6.6907    0.8779   13.4074 S   0  0  0  0  0  0  0  0  0  0  0  0
   -7.3014   -2.6677   20.6866 H   0  0  0  0  0  0  0  0  0  0  0  0
   -8.9572   -2.7037   20.2351 H   0  0  0  0  0  0  0  0  0  0  0  0
   -8.8881   -0.9162   23.0196 H   0  0  0  0  0  0  0  0  0  0  0  0
   -9.3519   -2.4844   23.0012 H   0  0  0  0  0  0  0  0  0  0  0  0
   -8.9869   -0.9985   25.2727 H   0  0  0  0  0  0  0  0  0  0  0  0
   -7.3126   -0.7071   25.0390 H   0  0  0  0  0  0  0  0  0  0  0  0
   -4.5291    1.5640   29.5671 H   0  0  0  0  0  0  0  0  0  0  0  0
   -5.1881    1.0577   31.3547 H   0  0  0  0  0  0  0  0  0  0  0  0
   -3.2080    0.9065   31.2880 H   0  0  0  0  0  0  0  0  0  0  0  0
   -3.0482   -0.2066   29.9258 H   0  0  0  0  0  0  0  0  0  0  0  0
   -1.9118   -2.1655   30.8880 H   0  0  0  0  0  0  0  0  0  0  0  0
    0.1670   -2.4349   32.2156 H   0  0  0  0  0  0  0  0  0  0  0  0
    0.1585   -1.6948   34.6098 H   0  0  0  0  0  0  0  0  0  0  0  0
   -1.9445   -0.7403   35.5419 H   0  0  0  0  0  0  0  0  0  0  0  0
   -5.7292   -1.8944   32.8062 H   0  0  0  0  0  0  0  0  0  0  0  0
   -5.5760   -0.1443   33.0218 H   0  0  0  0  0  0  0  0  0  0  0  0
   -7.5815   -0.0444   31.6873 H   0  0  0  0  0  0  0  0  0  0  0  0
   -7.1650   -1.7647   31.1595 H   0  0  0  0  0  0  0  0  0  0  0  0
   -6.9054   -2.7512   16.3879 H   0  0  0  0  0  0  0  0  0  0  0  0
   -9.4268   -0.7099   10.9754 H   0  0  0  0  0  0  0  0  0  0  0  0
   -9.1987    0.1659    8.9337 H   0  0  0  0  0  0  0  0  0  0  0  0
   -6.8618    0.1486    7.9531 H   0  0  0  0  0  0  0  0  0  0  0  0
   -5.1065   -0.3462    9.6658 H   0  0  0  0  0  0  0  0  0  0  0  0
  1  2  2  0
  2  3  1  0
  3  4  1  0
  4  5  1  0
  5  6  1  0
  6  7  2  0
  6  8  1  0
  8  9  1  0
  9 10  1  0
 10 11  1  0
 11 12  1  0
 12 13  2  0
 13 14  1  0
 14 15  2  0
 15 16  1  0
 16 17  2  0
 11 18  1  0
 18 19  1  0
  2 20  1  0
 20 21  1  0
 21 22  2  0
 22 23  1  0
 23 24  2  0
 24 25  1  0
 25 26  2  0
 26 27  1  0
 27 28  2  0
 28 29  1  0
 19  8  1  0
 29 21  1  0
 17 12  1  0
 28 23  1  0
  3 30  1  0
  3 31  1  0
  4 32  1  0
  4 33  1  0
  5 34  1  0
  5 35  1  0
  9 36  1  0
  9 37  1  0
 10 38  1  0
 10 39  1  0
 13 40  1  0
 14 41  1  0
 15 42  1  0
 16 43  1  0
 18 44  1  0
 18 45  1  0
 19 46  1  0
 19 47  1  0
 20 48  1  0
 24 49  1  0
 25 50  1  0
 26 51  1  0
 27 52  1  0
M  END
>  <Energy>  (143) 
3093.9419588054484

>  <compound_id>  (143) 
11043

>  <target_id>  (143) 
1

>  <reference_id>  (143) 
69

>  <inspiration_ids>  (143) 
[69, 59]

>  <energy_score>  (143) 
2969.887690672989

>  <distance_score>  (143) 
5.193863947562335

>  <path>  (143) 
/opt/xchem-fragalysis-2/maxwin/BulkDock/SCRATCH/511021/C11043-P69/C11043-P69.minimised.mol

>  <scratch_subdir>  (143) 
/opt/xchem-fragalysis-2/maxwin/BulkDock/SCRATCH/511021/C11043-P69

>  <fragmenstein_runtime>  (143) 
26.717609882354736

>  <fragmenstein_outcome>  (143) 
too moved

>  <fragmenstein_mode>  (143) 
expansion

>  <fragmenstein_error>  (143) 


$$$$
C11043-P59
     RDKit          3D

 52 55  0  0  0  0  0  0  0  0999 V2000
   -7.4307    0.7024   17.6581 O   0  0  0  0  0  0  0  0  0  0  0  0
   -7.7904   -0.4463   17.3340 C   0  0  0  0  0  0  0  0  0  0  0  0
   -8.6339   -1.4344   19.0524 C   0  0  0  0  0  0  0  0  0  0  0  0
   -7.9634   -2.3559   20.9544 C   0  0  0  0  0  0  0  0  0  0  0  0
   -8.4930   -2.1334   23.0823 C   0  0  0  0  0  0  0  0  0  0  0  0
   -7.9399   -1.3998   24.9706 C   0  0  0  0  0  0  0  0  0  0  0  0
   -7.2777   -0.4459   24.8490 O   0  0  0  0  0  0  0  0  0  0  0  0
   -8.2777   -1.7081   26.7220 N   0  0  0  0  0  0  0  0  0  0  0  0
   -9.7105   -1.1143   27.8442 C   0  0  0  0  0  0  0  0  0  0  0  0
   -9.3225   -2.6593   29.0702 C   0  0  0  0  0  0  0  0  0  0  0  0
   -7.8835   -2.6410   29.9072 N   0  0  0  0  0  0  0  0  0  0  0  0
   -7.1252   -2.1104   31.4132 C   0  0  0  0  0  0  0  0  0  0  0  0
   -5.7234   -2.4852   31.7120 C   0  0  0  0  0  0  0  0  0  0  0  0
   -4.9291   -1.9574   32.7566 C   0  0  0  0  0  0  0  0  0  0  0  0
   -5.4949   -1.0333   33.5935 C   0  0  0  0  0  0  0  0  0  0  0  0
   -6.7928   -0.6707   33.3140 C   0  0  0  0  0  0  0  0  0  0  0  0
   -7.5351   -1.1214   32.2547 N   0  0  0  0  0  0  0  0  0  0  0  0
   -7.9773   -1.3154   29.3398 C   0  0  0  0  0  0  0  0  0  0  0  0
   -7.8465   -1.1179   27.8422 C   0  0  0  0  0  0  0  0  0  0  0  0
   -7.4086   -1.2188   15.5237 N   0  0  0  0  0  0  0  0  0  0  0  0
   -6.3628   -0.5466   14.0132 C   0  0  0  0  0  0  0  0  0  0  0  0
   -7.3699   -0.5656   12.6604 N   0  0  0  0  0  0  0  0  0  0  0  0
   -7.7498   -0.0999   10.9503 C   0  0  0  0  0  0  0  0  0  0  0  0
   -8.8863    0.1357   10.0744 C   0  0  0  0  0  0  0  0  0  0  0  0
   -8.6701    0.2557    8.6884 C   0  0  0  0  0  0  0  0  0  0  0  0
   -7.3909    0.1124    8.1653 C   0  0  0  0  0  0  0  0  0  0  0  0
   -6.3112   -0.1078    9.0203 C   0  0  0  0  0  0  0  0  0  0  0  0
   -6.5894   -0.1356   10.4097 C   0  0  0  0  0  0  0  0  0  0  0  0
   -5.9021   -0.2718   11.9129 S   0  0  0  0  0  0  0  0  0  0  0  0
   -9.6357   -1.8277   18.7670 H   0  0  0  0  0  0  0  0  0  0  0  0
   -8.9336   -0.4727   19.3067 H   0  0  0  0  0  0  0  0  0  0  0  0
   -6.9343   -2.5726   21.1532 H   0  0  0  0  0  0  0  0  0  0  0  0
   -7.8718   -3.3887   20.6878 H   0  0  0  0  0  0  0  0  0  0  0  0
   -7.8209   -2.8721   23.5677 H   0  0  0  0  0  0  0  0  0  0  0  0
   -9.5582   -2.3793   23.1959 H   0  0  0  0  0  0  0  0  0  0  0  0
  -10.7749   -1.1745   27.4932 H   0  0  0  0  0  0  0  0  0  0  0  0
   -9.7730   -0.0723   28.2455 H   0  0  0  0  0  0  0  0  0  0  0  0
   -8.9223   -3.4542   28.4038 H   0  0  0  0  0  0  0  0  0  0  0  0
  -10.2181   -3.2311   29.3620 H   0  0  0  0  0  0  0  0  0  0  0  0
   -5.1680   -3.1028   31.0227 H   0  0  0  0  0  0  0  0  0  0  0  0
   -3.9003   -2.2782   32.8852 H   0  0  0  0  0  0  0  0  0  0  0  0
   -4.9593   -0.6119   34.4343 H   0  0  0  0  0  0  0  0  0  0  0  0
   -7.3140    0.0463   33.9440 H   0  0  0  0  0  0  0  0  0  0  0  0
   -7.3889   -0.7701   30.0688 H   0  0  0  0  0  0  0  0  0  0  0  0
   -8.8543   -0.6328   29.5469 H   0  0  0  0  0  0  0  0  0  0  0  0
   -7.3619   -0.2682   27.6312 H   0  0  0  0  0  0  0  0  0  0  0  0
   -8.3185   -0.1270   27.5194 H   0  0  0  0  0  0  0  0  0  0  0  0
   -7.8493   -2.0972   15.4400 H   0  0  0  0  0  0  0  0  0  0  0  0
   -9.9159    0.1264   10.4091 H   0  0  0  0  0  0  0  0  0  0  0  0
   -9.5185    0.3951    8.0225 H   0  0  0  0  0  0  0  0  0  0  0  0
   -7.2354    0.1525    7.0904 H   0  0  0  0  0  0  0  0  0  0  0  0
   -5.3006   -0.2348    8.6453 H   0  0  0  0  0  0  0  0  0  0  0  0
  1  2  2  0
  2  3  1  0
  3  4  1  0
  4  5  1  0
  5  6  1  0
  6  7  2  0
  6  8  1  0
  8  9  1  0
  9 10  1  0
 10 11  1  0
 11 12  1  0
 12 13  2  0
 13 14  1  0
 14 15  2  0
 15 16  1  0
 16 17  2  0
 11 18  1  0
 18 19  1  0
  2 20  1  0
 20 21  1  0
 21 22  2  0
 22 23  1  0
 23 24  2  0
 24 25  1  0
 25 26  2  0
 26 27  1  0
 27 28  2  0
 28 29  1  0
 19  8  1  0
 29 21  1  0
 17 12  1  0
 28 23  1  0
  3 30  1  0
  3 31  1  0
  4 32  1  0
  4 33  1  0
  5 34  1  0
  5 35  1  0
  9 36  1  0
  9 37  1  0
 10 38  1  0
 10 39  1  0
 13 40  1  0
 14 41  1  0
 15 42  1  0
 16 43  1  0
 18 44  1  0
 18 45  1  0
 19 46  1  0
 19 47  1  0
 20 48  1  0
 24 49  1  0
 25 50  1  0
 26 51  1  0
 27 52  1  0
M  END
>  <Energy>  (144) 
1833.878477171065

>  <compound_id>  (144) 
11043

>  <target_id>  (144) 
1

>  <reference_id>  (144) 
59

>  <inspiration_ids>  (144) 
[69, 59]

>  <energy_score>  (144) 
1709.8242090386345

>  <distance_score>  (144) 
6.571744357787133

>  <path>  (144) 
/opt/xchem-fragalysis-2/maxwin/BulkDock/SCRATCH/511021/C11043-P59/C11043-P59.minimised.mol

>  <scratch_subdir>  (144) 
/opt/xchem-fragalysis-2/maxwin/BulkDock/SCRATCH/511021/C11043-P59

>  <fragmenstein_runtime>  (144) 
17.10995650291443

>  <fragmenstein_outcome>  (144) 
too moved

>  <fragmenstein_mode>  (144) 
expansion

>  <fragmenstein_error>  (144) 


$$$$
C6699-P69
     RDKit          3D

 39 42  0  0  0  0  0  0  0  0999 V2000
   -6.4152   -1.5313   15.3535 O   0  0  0  0  0  0  0  0  0  0  0  0
   -5.6988   -0.5336   15.1480 C   0  0  0  0  0  0  0  0  0  0  0  0
   -4.3922   -0.0724   16.9901 C   0  0  0  0  0  0  0  0  0  0  0  0
   -4.2368   -0.8069   18.7172 C   0  0  0  0  0  0  0  0  0  0  0  0
   -4.1146   -0.5856   20.6961 C   0  0  0  0  0  0  0  0  0  0  0  0
   -3.5057   -2.0741   21.6433 C   0  0  0  0  0  0  0  0  0  0  0  0
   -3.9882   -3.5566   22.6855 S   0  0  0  0  0  0  0  0  0  0  0  0
   -4.8337   -4.3944   21.4355 C   0  0  0  0  0  0  0  0  0  0  0  0
   -4.7552   -3.9895   20.1576 N   0  0  0  0  0  0  0  0  0  0  0  0
   -3.8996   -2.5462   19.8437 C   0  0  0  0  0  0  0  0  0  0  0  0
   -3.7670   -1.4312   18.3189 C   0  0  0  0  0  0  0  0  0  0  0  0
   -6.1660    0.2382   13.4392 N   0  0  0  0  0  0  0  0  0  0  0  0
   -7.2367   -0.2614   12.1772 C   0  0  0  0  0  0  0  0  0  0  0  0
   -8.1919    0.2906   10.7327 C   0  0  0  0  0  0  0  0  0  0  0  0
   -9.0114    1.6600   10.8891 N   0  0  0  0  0  0  0  0  0  0  0  0
   -9.3735    2.2154    9.6653 C   0  0  0  0  0  0  0  0  0  0  0  0
   -9.6361    3.5674    9.4969 C   0  0  0  0  0  0  0  0  0  0  0  0
   -9.8541    4.0933    8.2196 C   0  0  0  0  0  0  0  0  0  0  0  0
   -9.8392    3.2441    7.1250 C   0  0  0  0  0  0  0  0  0  0  0  0
   -9.6509    1.9207    7.2208 N   0  0  0  0  0  0  0  0  0  0  0  0
   -9.4499    1.4513    8.4777 C   0  0  0  0  0  0  0  0  0  0  0  0
   -8.7224    2.4905   12.3946 C   0  0  0  0  0  0  0  0  0  0  0  0
   -7.2863    1.3956   13.3722 C   0  0  0  0  0  0  0  0  0  0  0  0
   -2.8291   -0.3197   18.5931 H   0  0  0  0  0  0  0  0  0  0  0  0
   -4.2025    0.1464   21.4499 H   0  0  0  0  0  0  0  0  0  0  0  0
   -5.3839   -5.2920   21.6849 H   0  0  0  0  0  0  0  0  0  0  0  0
   -2.6426   -1.8184   17.9905 H   0  0  0  0  0  0  0  0  0  0  0  0
   -6.8517    0.5752   11.7674 H   0  0  0  0  0  0  0  0  0  0  0  0
   -6.6584   -0.9929   11.7653 H   0  0  0  0  0  0  0  0  0  0  0  0
   -8.9510   -0.4661   10.5204 H   0  0  0  0  0  0  0  0  0  0  0  0
   -7.4974    0.3495    9.8818 H   0  0  0  0  0  0  0  0  0  0  0  0
   -9.6326    4.2431   10.3447 H   0  0  0  0  0  0  0  0  0  0  0  0
  -10.0275    5.1555    8.0857 H   0  0  0  0  0  0  0  0  0  0  0  0
   -9.9984    3.6231    6.1201 H   0  0  0  0  0  0  0  0  0  0  0  0
   -9.3427    0.3708    8.4918 H   0  0  0  0  0  0  0  0  0  0  0  0
   -9.7022    2.6562   12.8653 H   0  0  0  0  0  0  0  0  0  0  0  0
   -8.6217    3.6009   12.3657 H   0  0  0  0  0  0  0  0  0  0  0  0
   -7.4908    1.1072   14.2712 H   0  0  0  0  0  0  0  0  0  0  0  0
   -6.5476    2.1096   13.6240 H   0  0  0  0  0  0  0  0  0  0  0  0
  1  2  2  0
  2  3  1  0
  3  4  2  0
  4  5  1  0
  5  6  2  0
  6  7  1  0
  7  8  1  0
  8  9  2  0
  9 10  1  0
 10 11  2  0
  2 12  1  0
 12 13  1  0
 13 14  1  0
 14 15  1  0
 15 16  1  0
 16 17  2  0
 17 18  1  0
 18 19  2  0
 19 20  1  0
 20 21  2  0
 15 22  1  0
 22 23  1  0
 11  3  1  0
 23 12  1  0
 10  6  1  0
 21 16  1  0
  4 24  1  0
  5 25  1  0
  8 26  1  0
 11 27  1  0
 13 28  1  0
 13 29  1  0
 14 30  1  0
 14 31  1  0
 17 32  1  0
 18 33  1  0
 19 34  1  0
 21 35  1  0
 22 36  1  0
 22 37  1  0
 23 38  1  0
 23 39  1  0
M  END
>  <Energy>  (145) 
1946.4282658361949

>  <compound_id>  (145) 
6699

>  <target_id>  (145) 
1

>  <reference_id>  (145) 
69

>  <inspiration_ids>  (145) 
[69, 59]

>  <energy_score>  (145) 
1749.1765196249703

>  <distance_score>  (145) 
9.272478839018186

>  <path>  (145) 
/opt/xchem-fragalysis-2/maxwin/BulkDock/SCRATCH/511021/C6699-P69/C6699-P69.minimised.mol

>  <scratch_subdir>  (145) 
/opt/xchem-fragalysis-2/maxwin/BulkDock/SCRATCH/511021/C6699-P69

>  <fragmenstein_runtime>  (145) 
9.389103174209595

>  <fragmenstein_outcome>  (145) 
too moved

>  <fragmenstein_mode>  (145) 
expansion

>  <fragmenstein_error>  (145) 


$$$$
C6699-P59
     RDKit          3D

 39 42  0  0  0  0  0  0  0  0999 V2000
   -5.5835   -7.6619   14.4925 O   0  0  0  0  0  0  0  0  0  0  0  0
   -5.8002   -6.7441   15.2428 C   0  0  0  0  0  0  0  0  0  0  0  0
   -5.2475   -6.9329   16.7699 C   0  0  0  0  0  0  0  0  0  0  0  0
   -5.2462   -8.2350   17.2997 C   0  0  0  0  0  0  0  0  0  0  0  0
   -5.0148   -8.5529   18.6755 C   0  0  0  0  0  0  0  0  0  0  0  0
   -4.8200   -7.5197   19.5995 C   0  0  0  0  0  0  0  0  0  0  0  0
   -4.6071   -7.5605   21.3155 S   0  0  0  0  0  0  0  0  0  0  0  0
   -4.5697   -5.8531   21.3375 C   0  0  0  0  0  0  0  0  0  0  0  0
   -4.6705   -5.2629   20.1690 N   0  0  0  0  0  0  0  0  0  0  0  0
   -4.7881   -6.2042   19.1546 C   0  0  0  0  0  0  0  0  0  0  0  0
   -4.9470   -5.9484   17.7422 C   0  0  0  0  0  0  0  0  0  0  0  0
   -6.5655   -5.5315   15.0447 N   0  0  0  0  0  0  0  0  0  0  0  0
   -7.3953   -5.0979   13.9284 C   0  0  0  0  0  0  0  0  0  0  0  0
   -8.1019   -3.5804   13.8141 C   0  0  0  0  0  0  0  0  0  0  0  0
   -7.3445   -1.9255   14.0727 N   0  0  0  0  0  0  0  0  0  0  0  0
   -6.6929   -0.5589   12.9259 C   0  0  0  0  0  0  0  0  0  0  0  0
   -6.5527    0.6240   13.4480 C   0  0  0  0  0  0  0  0  0  0  0  0
   -6.8231    1.5092   12.4928 C   0  0  0  0  0  0  0  0  0  0  0  0
   -7.2959    1.1157   10.8628 C   0  0  0  0  0  0  0  0  0  0  0  0
   -7.0406    0.0153   10.3416 N   0  0  0  0  0  0  0  0  0  0  0  0
   -7.0741   -0.5924   11.5074 C   0  0  0  0  0  0  0  0  0  0  0  0
   -6.0102   -2.3045   14.2797 C   0  0  0  0  0  0  0  0  0  0  0  0
   -5.5379   -4.2448   14.4352 C   0  0  0  0  0  0  0  0  0  0  0  0
   -5.4673   -9.0645   16.6236 H   0  0  0  0  0  0  0  0  0  0  0  0
   -5.0461   -9.5909   18.9971 H   0  0  0  0  0  0  0  0  0  0  0  0
   -4.4570   -5.2909   22.2522 H   0  0  0  0  0  0  0  0  0  0  0  0
   -4.8649   -4.9088   17.4477 H   0  0  0  0  0  0  0  0  0  0  0  0
   -7.0030   -5.5323   13.0094 H   0  0  0  0  0  0  0  0  0  0  0  0
   -8.3147   -5.5824   14.2650 H   0  0  0  0  0  0  0  0  0  0  0  0
   -7.1191   -3.6247   13.7119 H   0  0  0  0  0  0  0  0  0  0  0  0
   -8.8046   -3.6813   13.0056 H   0  0  0  0  0  0  0  0  0  0  0  0
   -6.1667    0.6249   14.4190 H   0  0  0  0  0  0  0  0  0  0  0  0
   -7.4593    2.2926   12.9666 H   0  0  0  0  0  0  0  0  0  0  0  0
   -8.0403    1.7208   10.3228 H   0  0  0  0  0  0  0  0  0  0  0  0
   -8.1501   -0.8278   11.6874 H   0  0  0  0  0  0  0  0  0  0  0  0
   -6.0368   -1.7847   15.2025 H   0  0  0  0  0  0  0  0  0  0  0  0
   -5.4609   -1.4237   14.2284 H   0  0  0  0  0  0  0  0  0  0  0  0
   -5.0981   -4.6873   13.5505 H   0  0  0  0  0  0  0  0  0  0  0  0
   -4.8349   -4.3132   15.2709 H   0  0  0  0  0  0  0  0  0  0  0  0
  1  2  2  0
  2  3  1  0
  3  4  2  0
  4  5  1  0
  5  6  2  0
  6  7  1  0
  7  8  1  0
  8  9  2  0
  9 10  1  0
 10 11  2  0
  2 12  1  0
 12 13  1  0
 13 14  1  0
 14 15  1  0
 15 16  1  0
 16 17  2  0
 17 18  1  0
 18 19  2  0
 19 20  1  0
 20 21  2  0
 15 22  1  0
 22 23  1  0
 11  3  1  0
 23 12  1  0
 10  6  1  0
 21 16  1  0
  4 24  1  0
  5 25  1  0
  8 26  1  0
 11 27  1  0
 13 28  1  0
 13 29  1  0
 14 30  1  0
 14 31  1  0
 17 32  1  0
 18 33  1  0
 19 34  1  0
 21 35  1  0
 22 36  1  0
 22 37  1  0
 23 38  1  0
 23 39  1  0
M  END
>  <Energy>  (146) 
697.38010604365161

>  <compound_id>  (146) 
6699

>  <target_id>  (146) 
1

>  <reference_id>  (146) 
59

>  <inspiration_ids>  (146) 
[69, 59]

>  <energy_score>  (146) 
500.1283598324085

>  <distance_score>  (146) 
10.751016773856646

>  <path>  (146) 
/opt/xchem-fragalysis-2/maxwin/BulkDock/SCRATCH/511021/C6699-P59/C6699-P59.minimised.mol

>  <scratch_subdir>  (146) 
/opt/xchem-fragalysis-2/maxwin/BulkDock/SCRATCH/511021/C6699-P59

>  <fragmenstein_runtime>  (146) 
14.442451000213623

>  <fragmenstein_outcome>  (146) 
too moved

>  <fragmenstein_mode>  (146) 
expansion

>  <fragmenstein_error>  (146) 


$$$$
C52437-P69
     RDKit          3D

 41 44  0  0  0  0  0  0  0  0999 V2000
   -2.6495    3.6393   22.5168 O   0  0  0  0  0  0  0  0  0  0  0  0
   -2.4802    4.7698   22.7798 C   0  0  0  0  0  0  0  0  0  0  0  0
   -1.5331    5.3933   23.6895 N   0  0  0  0  0  0  0  0  0  0  0  0
   -0.4527    4.8235   24.4706 C   0  0  0  0  0  0  0  0  0  0  0  0
   -0.7918    4.0455   25.7270 C   0  0  0  0  0  0  0  0  0  0  0  0
   -0.0742    4.1432   26.8325 N   0  0  0  0  0  0  0  0  0  0  0  0
   -0.3585    3.0991   27.6983 C   0  0  0  0  0  0  0  0  0  0  0  0
    0.2787    2.8495   28.9313 C   0  0  0  0  0  0  0  0  0  0  0  0
   -0.0532    1.7076   29.6679 C   0  0  0  0  0  0  0  0  0  0  0  0
   -1.0084    0.8181   29.1885 C   0  0  0  0  0  0  0  0  0  0  0  0
   -1.6624    1.0521   27.9748 C   0  0  0  0  0  0  0  0  0  0  0  0
   -1.3334    2.2092   27.2516 C   0  0  0  0  0  0  0  0  0  0  0  0
   -1.9632    2.7894   25.7571 S   0  0  0  0  0  0  0  0  0  0  0  0
   -3.1942    5.9760   22.3084 N   0  0  0  0  0  0  0  0  0  0  0  0
   -2.5019    6.5496   21.0278 C   0  0  0  0  0  0  0  0  0  0  0  0
   -2.4451    5.8168   19.6348 C   0  0  0  0  0  0  0  0  0  0  0  0
   -3.7871    5.5200   19.1290 N   0  0  0  0  0  0  0  0  0  0  0  0
   -3.9337    4.9342   17.8714 C   0  0  0  0  0  0  0  0  0  0  0  0
   -2.9643    4.8047   16.9787 N   0  0  0  0  0  0  0  0  0  0  0  0
   -3.3959    4.1679   15.8205 C   0  0  0  0  0  0  0  0  0  0  0  0
   -4.7168    3.7979   15.8091 C   0  0  0  0  0  0  0  0  0  0  0  0
   -5.4457    4.2679   17.2833 S   0  0  0  0  0  0  0  0  0  0  0  0
   -4.6683    5.1559   20.2436 C   0  0  0  0  0  0  0  0  0  0  0  0
   -4.4238    6.1114   21.4393 C   0  0  0  0  0  0  0  0  0  0  0  0
   -1.7205    6.3859   23.7331 H   0  0  0  0  0  0  0  0  0  0  0  0
    0.2134    5.6529   24.7324 H   0  0  0  0  0  0  0  0  0  0  0  0
    0.0998    4.1528   23.8018 H   0  0  0  0  0  0  0  0  0  0  0  0
    1.0361    3.5405   29.2873 H   0  0  0  0  0  0  0  0  0  0  0  0
    0.4483    1.5105   30.6119 H   0  0  0  0  0  0  0  0  0  0  0  0
   -1.2480   -0.0829   29.7517 H   0  0  0  0  0  0  0  0  0  0  0  0
   -2.3927    0.3412   27.6009 H   0  0  0  0  0  0  0  0  0  0  0  0
   -2.7809    7.6097   20.8990 H   0  0  0  0  0  0  0  0  0  0  0  0
   -1.4449    6.6248   21.3265 H   0  0  0  0  0  0  0  0  0  0  0  0
   -1.9244    6.4780   18.9309 H   0  0  0  0  0  0  0  0  0  0  0  0
   -1.8378    4.9171   19.7314 H   0  0  0  0  0  0  0  0  0  0  0  0
   -2.6884    4.0083   15.0158 H   0  0  0  0  0  0  0  0  0  0  0  0
   -5.2817    3.3005   15.0367 H   0  0  0  0  0  0  0  0  0  0  0  0
   -5.7098    5.2894   19.9354 H   0  0  0  0  0  0  0  0  0  0  0  0
   -4.5035    4.1185   20.5459 H   0  0  0  0  0  0  0  0  0  0  0  0
   -4.6792    7.1606   21.2151 H   0  0  0  0  0  0  0  0  0  0  0  0
   -5.2076    5.8314   22.1584 H   0  0  0  0  0  0  0  0  0  0  0  0
  1  2  2  0
  2  3  1  0
  3  4  1  0
  4  5  1  0
  5  6  2  0
  6  7  1  0
  7  8  2  0
  8  9  1  0
  9 10  2  0
 10 11  1  0
 11 12  2  0
 12 13  1  0
  2 14  1  0
 14 15  1  0
 15 16  1  0
 16 17  1  0
 17 18  1  0
 18 19  2  0
 19 20  1  0
 20 21  2  0
 21 22  1  0
 17 23  1  0
 23 24  1  0
 13  5  1  0
 24 14  1  0
 12  7  1  0
 22 18  1  0
  3 25  1  0
  4 26  1  0
  4 27  1  0
  8 28  1  0
  9 29  1  0
 10 30  1  0
 11 31  1  0
 15 32  1  0
 15 33  1  0
 16 34  1  0
 16 35  1  0
 20 36  1  0
 21 37  1  0
 23 38  1  0
 23 39  1  0
 24 40  1  0
 24 41  1  0
M  END
>  <Energy>  (147) 
59.576586091136946

>  <compound_id>  (147) 
52437

>  <target_id>  (147) 
1

>  <reference_id>  (147) 
69

>  <inspiration_ids>  (147) 
[69, 59]

>  <energy_score>  (147) 
-44.183959161513485

>  <distance_score>  (147) 
11.099650065724942

>  <path>  (147) 
/opt/xchem-fragalysis-2/maxwin/BulkDock/SCRATCH/511021/C52437-P69/C52437-P69.minimised.mol

>  <scratch_subdir>  (147) 
/opt/xchem-fragalysis-2/maxwin/BulkDock/SCRATCH/511021/C52437-P69

>  <fragmenstein_runtime>  (147) 
14.082752704620361

>  <fragmenstein_outcome>  (147) 
too moved

>  <fragmenstein_mode>  (147) 
expansion

>  <fragmenstein_error>  (147) 


$$$$
C52437-P59
     RDKit          3D

 41 44  0  0  0  0  0  0  0  0999 V2000
   -0.5293   -0.0297   29.7994 O   0  0  0  0  0  0  0  0  0  0  0  0
   -0.2539   -0.5567   28.7888 C   0  0  0  0  0  0  0  0  0  0  0  0
    0.9231   -1.3071   28.4124 N   0  0  0  0  0  0  0  0  0  0  0  0
    2.0666   -1.7151   29.1860 C   0  0  0  0  0  0  0  0  0  0  0  0
    1.6139   -2.0435   30.5764 C   0  0  0  0  0  0  0  0  0  0  0  0
    1.9133   -1.3249   31.6373 N   0  0  0  0  0  0  0  0  0  0  0  0
    1.1259   -1.7168   32.7012 C   0  0  0  0  0  0  0  0  0  0  0  0
    1.1013   -1.1163   33.9766 C   0  0  0  0  0  0  0  0  0  0  0  0
    0.2444   -1.6128   34.9637 C   0  0  0  0  0  0  0  0  0  0  0  0
   -0.5791   -2.7001   34.6942 C   0  0  0  0  0  0  0  0  0  0  0  0
   -0.5644   -3.3176   33.4393 C   0  0  0  0  0  0  0  0  0  0  0  0
    0.2949   -2.8108   32.4562 C   0  0  0  0  0  0  0  0  0  0  0  0
    0.5371   -3.3611   30.8466 S   0  0  0  0  0  0  0  0  0  0  0  0
   -0.9858   -0.6308   27.5465 N   0  0  0  0  0  0  0  0  0  0  0  0
   -1.8820   -1.8656   27.5331 C   0  0  0  0  0  0  0  0  0  0  0  0
   -2.9901   -2.2148   26.4109 C   0  0  0  0  0  0  0  0  0  0  0  0
   -2.9854   -1.6619   25.1425 N   0  0  0  0  0  0  0  0  0  0  0  0
   -2.3469   -2.6384   23.8767 C   0  0  0  0  0  0  0  0  0  0  0  0
   -1.1997   -2.2633   22.8941 N   0  0  0  0  0  0  0  0  0  0  0  0
    0.3615   -3.1890   22.9725 C   0  0  0  0  0  0  0  0  0  0  0  0
    0.1247   -4.6147   23.4284 C   0  0  0  0  0  0  0  0  0  0  0  0
   -1.8788   -4.8702   24.1273 S   0  0  0  0  0  0  0  0  0  0  0  0
   -2.6122   -0.1928   25.6903 C   0  0  0  0  0  0  0  0  0  0  0  0
   -2.2142    0.0048   27.1445 C   0  0  0  0  0  0  0  0  0  0  0  0
    0.8617   -1.5482   27.4325 H   0  0  0  0  0  0  0  0  0  0  0  0
    2.7775   -0.8836   29.1964 H   0  0  0  0  0  0  0  0  0  0  0  0
    2.5308   -2.5763   28.6968 H   0  0  0  0  0  0  0  0  0  0  0  0
    1.7440   -0.2647   34.1757 H   0  0  0  0  0  0  0  0  0  0  0  0
    0.2238   -1.1431   35.9440 H   0  0  0  0  0  0  0  0  0  0  0  0
   -1.2461   -3.0799   35.4660 H   0  0  0  0  0  0  0  0  0  0  0  0
   -1.2006   -4.1730   33.2438 H   0  0  0  0  0  0  0  0  0  0  0  0
   -1.1727   -2.7038   27.5821 H   0  0  0  0  0  0  0  0  0  0  0  0
   -2.3607   -1.9485   28.5281 H   0  0  0  0  0  0  0  0  0  0  0  0
   -2.8933   -3.1502   25.9491 H   0  0  0  0  0  0  0  0  0  0  0  0
   -3.9687   -2.1801   26.8805 H   0  0  0  0  0  0  0  0  0  0  0  0
    1.1745   -2.8295   22.3738 H   0  0  0  0  0  0  0  0  0  0  0  0
    0.6942   -5.5333   23.3942 H   0  0  0  0  0  0  0  0  0  0  0  0
   -1.7801    0.2564   25.2160 H   0  0  0  0  0  0  0  0  0  0  0  0
   -3.4749    0.4711   25.5812 H   0  0  0  0  0  0  0  0  0  0  0  0
   -1.9732    1.0772   27.2357 H   0  0  0  0  0  0  0  0  0  0  0  0
   -2.9933   -0.0752   27.8948 H   0  0  0  0  0  0  0  0  0  0  0  0
  1  2  2  0
  2  3  1  0
  3  4  1  0
  4  5  1  0
  5  6  2  0
  6  7  1  0
  7  8  2  0
  8  9  1  0
  9 10  2  0
 10 11  1  0
 11 12  2  0
 12 13  1  0
  2 14  1  0
 14 15  1  0
 15 16  1  0
 16 17  1  0
 17 18  1  0
 18 19  2  0
 19 20  1  0
 20 21  2  0
 21 22  1  0
 17 23  1  0
 23 24  1  0
 13  5  1  0
 24 14  1  0
 12  7  1  0
 22 18  1  0
  3 25  1  0
  4 26  1  0
  4 27  1  0
  8 28  1  0
  9 29  1  0
 10 30  1  0
 11 31  1  0
 15 32  1  0
 15 33  1  0
 16 34  1  0
 16 35  1  0
 20 36  1  0
 21 37  1  0
 23 38  1  0
 23 39  1  0
 24 40  1  0
 24 41  1  0
M  END
>  <Energy>  (148) 
330.20153116746195

>  <compound_id>  (148) 
52437

>  <target_id>  (148) 
1

>  <reference_id>  (148) 
59

>  <inspiration_ids>  (148) 
[69, 59]

>  <energy_score>  (148) 
226.44098591481668

>  <distance_score>  (148) 
11.515260357424252

>  <path>  (148) 
/opt/xchem-fragalysis-2/maxwin/BulkDock/SCRATCH/511021/C52437-P59/C52437-P59.minimised.mol

>  <scratch_subdir>  (148) 
/opt/xchem-fragalysis-2/maxwin/BulkDock/SCRATCH/511021/C52437-P59

>  <fragmenstein_runtime>  (148) 
15.047062873840332

>  <fragmenstein_outcome>  (148) 
too moved

>  <fragmenstein_mode>  (148) 
expansion

>  <fragmenstein_error>  (148) 


$$$$
C6747-P69
     RDKit          3D

 37 40  0  0  0  0  0  0  0  0999 V2000
   -5.1687   -0.5293    7.5514 C   0  0  0  0  0  0  0  0  0  0  0  0
   -6.5604   -0.4546    7.8146 C   0  0  0  0  0  0  0  0  0  0  0  0
   -7.0665   -0.3498    9.1147 C   0  0  0  0  0  0  0  0  0  0  0  0
   -6.0423   -0.3502   10.0496 C   0  0  0  0  0  0  0  0  0  0  0  0
   -5.9609   -0.4302   12.2882 S   0  0  0  0  0  0  0  0  0  0  0  0
   -3.6080   -0.3084   12.4280 C   0  0  0  0  0  0  0  0  0  0  0  0
   -3.0107   -0.8013   14.0261 N   0  0  0  0  0  0  0  0  0  0  0  0
   -3.4367    0.7636   15.3407 C   0  0  0  0  0  0  0  0  0  0  0  0
   -3.9687    0.3047   17.4113 C   0  0  0  0  0  0  0  0  0  0  0  0
   -3.5513   -0.9234   19.1562 N   0  0  0  0  0  0  0  0  0  0  0  0
   -3.4591   -0.3932   21.2823 C   0  0  0  0  0  0  0  0  0  0  0  0
   -2.5973    1.1265   22.3676 C   0  0  0  0  0  0  0  0  0  0  0  0
   -2.6659    1.8980   24.1995 C   0  0  0  0  0  0  0  0  0  0  0  0
   -3.4583    0.7315   25.5194 N   0  0  0  0  0  0  0  0  0  0  0  0
   -3.8884   -1.0202   24.7121 C   0  0  0  0  0  0  0  0  0  0  0  0
   -3.6279   -1.5090   22.8302 C   0  0  0  0  0  0  0  0  0  0  0  0
   -2.3254   -1.7934   17.6253 C   0  0  0  0  0  0  0  0  0  0  0  0
   -2.2290   -2.4073   15.4146 C   0  0  0  0  0  0  0  0  0  0  0  0
   -4.4013   -0.3564   11.2961 N   0  0  0  0  0  0  0  0  0  0  0  0
   -4.6758   -0.3730    9.8550 C   0  0  0  0  0  0  0  0  0  0  0  0
   -4.1825   -0.4625    8.5682 C   0  0  0  0  0  0  0  0  0  0  0  0
   -4.8426   -0.6556    6.5190 H   0  0  0  0  0  0  0  0  0  0  0  0
   -7.2584   -0.5123    6.9801 H   0  0  0  0  0  0  0  0  0  0  0  0
   -8.1156   -0.3270    9.3658 H   0  0  0  0  0  0  0  0  0  0  0  0
   -4.6263    0.8594   15.1071 H   0  0  0  0  0  0  0  0  0  0  0  0
   -2.6916    1.5728   15.0932 H   0  0  0  0  0  0  0  0  0  0  0  0
   -3.6098   -0.5631   17.2974 H   0  0  0  0  0  0  0  0  0  0  0  0
   -4.9742    0.7330   17.5492 H   0  0  0  0  0  0  0  0  0  0  0  0
   -1.8556    1.8127   21.9201 H   0  0  0  0  0  0  0  0  0  0  0  0
   -2.1341    2.7482   24.5993 H   0  0  0  0  0  0  0  0  0  0  0  0
   -4.0834   -1.6874   25.5275 H   0  0  0  0  0  0  0  0  0  0  0  0
   -3.8908   -2.5574   22.6704 H   0  0  0  0  0  0  0  0  0  0  0  0
   -1.3961   -1.1926   17.7410 H   0  0  0  0  0  0  0  0  0  0  0  0
   -1.6503   -2.4738   18.0949 H   0  0  0  0  0  0  0  0  0  0  0  0
   -1.1885   -2.6007   15.0142 H   0  0  0  0  0  0  0  0  0  0  0  0
   -2.5011   -3.3126   16.0207 H   0  0  0  0  0  0  0  0  0  0  0  0
   -3.1260   -0.5462    8.3543 H   0  0  0  0  0  0  0  0  0  0  0  0
  1  2  2  0
  2  3  1  0
  3  4  2  0
  4  5  1  0
  5  6  1  0
  6  7  1  0
  7  8  1  0
  8  9  1  0
  9 10  1  0
 10 11  1  0
 11 12  2  0
 12 13  1  0
 13 14  2  0
 14 15  1  0
 15 16  2  0
 10 17  1  0
 17 18  1  0
  6 19  2  0
 19 20  1  0
 20 21  2  0
 21  1  1  0
 20  4  1  0
 18  7  1  0
 16 11  1  0
  1 22  1  0
  2 23  1  0
  3 24  1  0
  8 25  1  0
  8 26  1  0
  9 27  1  0
  9 28  1  0
 12 29  1  0
 13 30  1  0
 15 31  1  0
 16 32  1  0
 17 33  1  0
 17 34  1  0
 18 35  1  0
 18 36  1  0
 21 37  1  0
M  END
>  <Energy>  (149) 
2572.4626685068474

>  <compound_id>  (149) 
6747

>  <target_id>  (149) 
1

>  <reference_id>  (149) 
69

>  <inspiration_ids>  (149) 
[69, 59]

>  <energy_score>  (149) 
2418.861206934922

>  <distance_score>  (149) 
5.784283490094595

>  <path>  (149) 
/opt/xchem-fragalysis-2/maxwin/BulkDock/SCRATCH/511021/C6747-P69/C6747-P69.minimised.mol

>  <scratch_subdir>  (149) 
/opt/xchem-fragalysis-2/maxwin/BulkDock/SCRATCH/511021/C6747-P69

>  <fragmenstein_runtime>  (149) 
9.092850923538208

>  <fragmenstein_outcome>  (149) 
too moved

>  <fragmenstein_mode>  (149) 
expansion

>  <fragmenstein_error>  (149) 


$$$$
C6747-P59
     RDKit          3D

 37 40  0  0  0  0  0  0  0  0999 V2000
   -5.3122   -0.2336    8.6502 C   0  0  0  0  0  0  0  0  0  0  0  0
   -6.5062   -0.0921    9.2982 C   0  0  0  0  0  0  0  0  0  0  0  0
   -6.5161   -0.1023   10.7531 C   0  0  0  0  0  0  0  0  0  0  0  0
   -5.4243   -0.3883   11.7816 C   0  0  0  0  0  0  0  0  0  0  0  0
   -3.2353   -0.4335   12.5399 S   0  0  0  0  0  0  0  0  0  0  0  0
   -2.5556   -2.7434   12.9374 C   0  0  0  0  0  0  0  0  0  0  0  0
   -3.6943   -4.3504   13.3472 N   0  0  0  0  0  0  0  0  0  0  0  0
   -5.2465   -3.7138   14.3590 C   0  0  0  0  0  0  0  0  0  0  0  0
   -4.7050   -3.5891   16.3564 C   0  0  0  0  0  0  0  0  0  0  0  0
   -4.8442   -4.3894   17.8684 N   0  0  0  0  0  0  0  0  0  0  0  0
   -5.0583   -4.2718   19.4469 C   0  0  0  0  0  0  0  0  0  0  0  0
   -4.4556   -4.6819   20.6094 C   0  0  0  0  0  0  0  0  0  0  0  0
   -4.7868   -4.4755   22.0259 C   0  0  0  0  0  0  0  0  0  0  0  0
   -5.8925   -3.8819   22.4901 N   0  0  0  0  0  0  0  0  0  0  0  0
   -6.7036   -3.6265   21.5128 C   0  0  0  0  0  0  0  0  0  0  0  0
   -6.2603   -4.0069   20.1721 C   0  0  0  0  0  0  0  0  0  0  0  0
   -4.7124   -5.4774   16.9999 C   0  0  0  0  0  0  0  0  0  0  0  0
   -4.6385   -4.9160   15.0204 C   0  0  0  0  0  0  0  0  0  0  0  0
   -2.6938   -1.0219   12.3672 N   0  0  0  0  0  0  0  0  0  0  0  0
   -4.2002   -0.4416   11.1529 C   0  0  0  0  0  0  0  0  0  0  0  0
   -4.2011   -0.3438    9.4886 C   0  0  0  0  0  0  0  0  0  0  0  0
   -5.2227   -0.2474    7.5722 H   0  0  0  0  0  0  0  0  0  0  0  0
   -7.4411    0.0081    8.7532 H   0  0  0  0  0  0  0  0  0  0  0  0
   -7.5173   -0.1509   11.1196 H   0  0  0  0  0  0  0  0  0  0  0  0
   -5.6709   -2.7229   14.0917 H   0  0  0  0  0  0  0  0  0  0  0  0
   -6.1814   -4.1932   13.9664 H   0  0  0  0  0  0  0  0  0  0  0  0
   -3.6679   -3.2850   16.1230 H   0  0  0  0  0  0  0  0  0  0  0  0
   -3.7812   -4.0932   16.4547 H   0  0  0  0  0  0  0  0  0  0  0  0
   -3.5233   -5.1295   20.5231 H   0  0  0  0  0  0  0  0  0  0  0  0
   -4.1010   -4.8478   22.7726 H   0  0  0  0  0  0  0  0  0  0  0  0
   -7.6701   -3.1844   21.7056 H   0  0  0  0  0  0  0  0  0  0  0  0
   -6.4236   -5.1011   20.5228 H   0  0  0  0  0  0  0  0  0  0  0  0
   -3.9593   -6.2072   17.2889 H   0  0  0  0  0  0  0  0  0  0  0  0
   -5.6840   -6.0303   17.1141 H   0  0  0  0  0  0  0  0  0  0  0  0
   -3.8410   -5.3950   15.2532 H   0  0  0  0  0  0  0  0  0  0  0  0
   -5.6962   -5.1948   15.1077 H   0  0  0  0  0  0  0  0  0  0  0  0
   -3.2273   -0.4386    9.0007 H   0  0  0  0  0  0  0  0  0  0  0  0
  1  2  2  0
  2  3  1  0
  3  4  2  0
  4  5  1  0
  5  6  1  0
  6  7  1  0
  7  8  1  0
  8  9  1  0
  9 10  1  0
 10 11  1  0
 11 12  2  0
 12 13  1  0
 13 14  2  0
 14 15  1  0
 15 16  2  0
 10 17  1  0
 17 18  1  0
  6 19  2  0
 19 20  1  0
 20 21  2  0
 21  1  1  0
 20  4  1  0
 18  7  1  0
 16 11  1  0
  1 22  1  0
  2 23  1  0
  3 24  1  0
  8 25  1  0
  8 26  1  0
  9 27  1  0
  9 28  1  0
 12 29  1  0
 13 30  1  0
 15 31  1  0
 16 32  1  0
 17 33  1  0
 17 34  1  0
 18 35  1  0
 18 36  1  0
 21 37  1  0
M  END
>  <Energy>  (150) 
1969.3162943120574

>  <compound_id>  (150) 
6747

>  <target_id>  (150) 
1

>  <reference_id>  (150) 
59

>  <inspiration_ids>  (150) 
[69, 59]

>  <energy_score>  (150) 
1815.714832740106

>  <distance_score>  (150) 
8.067701807385811

>  <path>  (150) 
/opt/xchem-fragalysis-2/maxwin/BulkDock/SCRATCH/511021/C6747-P59/C6747-P59.minimised.mol

>  <scratch_subdir>  (150) 
/opt/xchem-fragalysis-2/maxwin/BulkDock/SCRATCH/511021/C6747-P59

>  <fragmenstein_runtime>  (150) 
10.831974029541016

>  <fragmenstein_outcome>  (150) 
too moved

>  <fragmenstein_mode>  (150) 
expansion

>  <fragmenstein_error>  (150) 


$$$$
C52441-P69
     RDKit          3D

 34 37  0  0  0  0  0  0  0  0999 V2000
   -4.1879   -1.7624   25.5119 C   0  0  0  0  0  0  0  0  0  0  0  0
   -5.5459   -1.9293   26.0737 C   0  0  0  0  0  0  0  0  0  0  0  0
   -7.2338   -1.4252   25.7145 C   0  0  0  0  0  0  0  0  0  0  0  0
   -7.6345   -1.9267   24.5627 C   0  0  0  0  0  0  0  0  0  0  0  0
   -9.0323   -2.0683   23.5550 S   0  0  0  0  0  0  0  0  0  0  0  0
   -7.7946   -2.3783   21.7359 C   0  0  0  0  0  0  0  0  0  0  0  0
   -8.4736   -2.2509   20.1486 N   0  0  0  0  0  0  0  0  0  0  0  0
  -10.1763   -2.5108   19.6851 C   0  0  0  0  0  0  0  0  0  0  0  0
  -10.5137   -1.9463   17.8930 C   0  0  0  0  0  0  0  0  0  0  0  0
   -9.2602   -0.9882   16.9176 N   0  0  0  0  0  0  0  0  0  0  0  0
   -7.6713   -1.2216   15.7890 C   0  0  0  0  0  0  0  0  0  0  0  0
   -6.9956   -1.8421   14.5311 N   0  0  0  0  0  0  0  0  0  0  0  0
   -6.5165   -0.7341   13.0511 C   0  0  0  0  0  0  0  0  0  0  0  0
   -6.6978    0.6194   13.2681 C   0  0  0  0  0  0  0  0  0  0  0  0
   -6.1062    0.0580   14.8319 S   0  0  0  0  0  0  0  0  0  0  0  0
   -9.4756   -0.0057   17.9964 C   0  0  0  0  0  0  0  0  0  0  0  0
   -8.7544   -0.6390   19.1068 C   0  0  0  0  0  0  0  0  0  0  0  0
   -6.7921   -2.9700   22.3433 N   0  0  0  0  0  0  0  0  0  0  0  0
   -6.4455   -2.3718   24.0084 C   0  0  0  0  0  0  0  0  0  0  0  0
   -4.5871   -2.3821   24.2889 C   0  0  0  0  0  0  0  0  0  0  0  0
   -3.3806   -1.8923   26.2072 H   0  0  0  0  0  0  0  0  0  0  0  0
   -5.3005   -2.3749   27.1179 H   0  0  0  0  0  0  0  0  0  0  0  0
   -7.9880   -1.3184   26.5065 H   0  0  0  0  0  0  0  0  0  0  0  0
  -10.4005   -3.5712   19.7966 H   0  0  0  0  0  0  0  0  0  0  0  0
  -10.8331   -1.9069   20.3202 H   0  0  0  0  0  0  0  0  0  0  0  0
  -11.2293   -2.5448   17.3068 H   0  0  0  0  0  0  0  0  0  0  0  0
  -11.3102   -1.2122   18.1106 H   0  0  0  0  0  0  0  0  0  0  0  0
   -6.9806   -0.9794   12.0996 H   0  0  0  0  0  0  0  0  0  0  0  0
   -7.4727    1.2608   12.8972 H   0  0  0  0  0  0  0  0  0  0  0  0
  -10.4942    0.3465   18.1973 H   0  0  0  0  0  0  0  0  0  0  0  0
   -8.9906    0.9224   17.8063 H   0  0  0  0  0  0  0  0  0  0  0  0
   -8.1435   -0.9564   18.3061 H   0  0  0  0  0  0  0  0  0  0  0  0
   -8.2175    0.3007   19.2728 H   0  0  0  0  0  0  0  0  0  0  0  0
   -3.9150   -2.8373   23.5496 H   0  0  0  0  0  0  0  0  0  0  0  0
  1  2  2  0
  2  3  1  0
  3  4  2  0
  4  5  1  0
  5  6  1  0
  6  7  1  0
  7  8  1  0
  8  9  1  0
  9 10  1  0
 10 11  1  0
 11 12  2  0
 12 13  1  0
 13 14  2  0
 14 15  1  0
 10 16  1  0
 16 17  1  0
  6 18  2  0
 18 19  1  0
 19 20  2  0
 20  1  1  0
 19  4  1  0
 17  7  1  0
 15 11  1  0
  1 21  1  0
  2 22  1  0
  3 23  1  0
  8 24  1  0
  8 25  1  0
  9 26  1  0
  9 27  1  0
 13 28  1  0
 14 29  1  0
 16 30  1  0
 16 31  1  0
 17 32  1  0
 17 33  1  0
 20 34  1  0
M  END
>  <Energy>  (151) 
1132.867910489256

>  <compound_id>  (151) 
52441

>  <target_id>  (151) 
1

>  <reference_id>  (151) 
69

>  <inspiration_ids>  (151) 
[69, 59]

>  <energy_score>  (151) 
981.9881316907869

>  <distance_score>  (151) 
8.210454445963538

>  <path>  (151) 
/opt/xchem-fragalysis-2/maxwin/BulkDock/SCRATCH/511021/C52441-P69/C52441-P69.minimised.mol

>  <scratch_subdir>  (151) 
/opt/xchem-fragalysis-2/maxwin/BulkDock/SCRATCH/511021/C52441-P69

>  <fragmenstein_runtime>  (151) 
11.870147466659546

>  <fragmenstein_outcome>  (151) 
too moved

>  <fragmenstein_mode>  (151) 
expansion

>  <fragmenstein_error>  (151) 


$$$$
C52441-P59
     RDKit          3D

 34 37  0  0  0  0  0  0  0  0999 V2000
   -0.8229   -1.6120   28.7110 C   0  0  0  0  0  0  0  0  0  0  0  0
   -1.1007   -0.2768   28.4520 C   0  0  0  0  0  0  0  0  0  0  0  0
   -1.8932    0.0764   27.3604 C   0  0  0  0  0  0  0  0  0  0  0  0
   -2.3551   -0.9700   26.5631 C   0  0  0  0  0  0  0  0  0  0  0  0
   -3.4024   -1.2257   25.3820 S   0  0  0  0  0  0  0  0  0  0  0  0
   -3.2128   -2.7349   24.0936 C   0  0  0  0  0  0  0  0  0  0  0  0
   -3.8127   -3.1107   22.4350 N   0  0  0  0  0  0  0  0  0  0  0  0
   -4.6213   -4.1864   21.2427 C   0  0  0  0  0  0  0  0  0  0  0  0
   -4.2617   -4.0297   19.3385 C   0  0  0  0  0  0  0  0  0  0  0  0
   -3.3283   -2.5440   18.6709 N   0  0  0  0  0  0  0  0  0  0  0  0
   -1.8019   -2.0171   17.8893 C   0  0  0  0  0  0  0  0  0  0  0  0
   -1.2187   -2.6863   16.9579 N   0  0  0  0  0  0  0  0  0  0  0  0
   -0.0358   -1.8473   16.0279 C   0  0  0  0  0  0  0  0  0  0  0  0
    0.3605   -0.6395   16.4745 C   0  0  0  0  0  0  0  0  0  0  0  0
    0.1765   -1.0390   18.0196 S   0  0  0  0  0  0  0  0  0  0  0  0
   -3.9578   -1.7222   19.3897 C   0  0  0  0  0  0  0  0  0  0  0  0
   -3.4696   -1.9754   21.5226 C   0  0  0  0  0  0  0  0  0  0  0  0
   -2.9298   -3.2161   25.3472 N   0  0  0  0  0  0  0  0  0  0  0  0
   -2.1939   -2.2748   26.7127 C   0  0  0  0  0  0  0  0  0  0  0  0
   -1.3334   -2.6054   27.8600 C   0  0  0  0  0  0  0  0  0  0  0  0
   -0.1984   -1.8888   29.5548 H   0  0  0  0  0  0  0  0  0  0  0  0
   -0.7140    0.4998   29.1067 H   0  0  0  0  0  0  0  0  0  0  0  0
   -2.1714    1.1058   27.1639 H   0  0  0  0  0  0  0  0  0  0  0  0
   -4.4041   -5.2172   21.4791 H   0  0  0  0  0  0  0  0  0  0  0  0
   -5.7026   -4.0194   21.3106 H   0  0  0  0  0  0  0  0  0  0  0  0
   -5.0988   -4.3455   18.7567 H   0  0  0  0  0  0  0  0  0  0  0  0
   -3.7103   -4.9159   19.1680 H   0  0  0  0  0  0  0  0  0  0  0  0
   -0.0383   -2.2837   15.0286 H   0  0  0  0  0  0  0  0  0  0  0  0
    0.9676    0.1480   16.0549 H   0  0  0  0  0  0  0  0  0  0  0  0
   -3.4251   -0.9977   18.8421 H   0  0  0  0  0  0  0  0  0  0  0  0
   -4.7146   -1.1771   18.9578 H   0  0  0  0  0  0  0  0  0  0  0  0
   -2.4316   -1.8275   21.8861 H   0  0  0  0  0  0  0  0  0  0  0  0
   -3.7644   -0.9241   21.7195 H   0  0  0  0  0  0  0  0  0  0  0  0
   -1.0654   -3.6371   28.0547 H   0  0  0  0  0  0  0  0  0  0  0  0
  1  2  2  0
  2  3  1  0
  3  4  2  0
  4  5  1  0
  5  6  1  0
  6  7  1  0
  7  8  1  0
  8  9  1  0
  9 10  1  0
 10 11  1  0
 11 12  2  0
 12 13  1  0
 13 14  2  0
 14 15  1  0
 10 16  1  0
 16 17  1  0
  6 18  2  0
 18 19  1  0
 19 20  2  0
 20  1  1  0
 19  4  1  0
 17  7  1  0
 15 11  1  0
  1 21  1  0
  2 22  1  0
  3 23  1  0
  8 24  1  0
  8 25  1  0
  9 26  1  0
  9 27  1  0
 13 28  1  0
 14 29  1  0
 16 30  1  0
 16 31  1  0
 17 32  1  0
 17 33  1  0
 20 34  1  0
M  END
>  <Energy>  (152) 
894.96672705372418

>  <compound_id>  (152) 
52441

>  <target_id>  (152) 
1

>  <reference_id>  (152) 
59

>  <inspiration_ids>  (152) 
[69, 59]

>  <energy_score>  (152) 
744.0869482552366

>  <distance_score>  (152) 
8.480279202087116

>  <path>  (152) 
/opt/xchem-fragalysis-2/maxwin/BulkDock/SCRATCH/511021/C52441-P59/C52441-P59.minimised.mol

>  <scratch_subdir>  (152) 
/opt/xchem-fragalysis-2/maxwin/BulkDock/SCRATCH/511021/C52441-P59

>  <fragmenstein_runtime>  (152) 
10.442421197891235

>  <fragmenstein_outcome>  (152) 
too moved

>  <fragmenstein_mode>  (152) 
expansion

>  <fragmenstein_error>  (152) 


$$$$
C6749-P69
     RDKit          3D

 41 44  0  0  0  0  0  0  0  0999 V2000
   -5.3553   -2.8620   28.4400 O   0  0  0  0  0  0  0  0  0  0  0  0
   -5.0943   -2.1933   27.0447 C   0  0  0  0  0  0  0  0  0  0  0  0
   -4.0129   -2.0046   27.0628 N   0  0  0  0  0  0  0  0  0  0  0  0
   -2.7626   -2.0733   27.9725 C   0  0  0  0  0  0  0  0  0  0  0  0
   -1.8324   -2.9707   27.3137 N   0  0  0  0  0  0  0  0  0  0  0  0
   -1.7530   -4.3429   28.4684 C   0  0  0  0  0  0  0  0  0  0  0  0
   -1.5246   -5.9518   28.1095 C   0  0  0  0  0  0  0  0  0  0  0  0
   -0.9926   -6.7671   29.2365 C   0  0  0  0  0  0  0  0  0  0  0  0
   -0.7500   -6.1612   30.5947 C   0  0  0  0  0  0  0  0  0  0  0  0
   -1.1200   -4.7693   30.9656 C   0  0  0  0  0  0  0  0  0  0  0  0
   -1.6974   -3.8921   29.9355 C   0  0  0  0  0  0  0  0  0  0  0  0
   -2.6948   -2.2338   29.9948 S   0  0  0  0  0  0  0  0  0  0  0  0
   -6.2212   -1.6184   25.6747 N   0  0  0  0  0  0  0  0  0  0  0  0
   -8.1763   -1.5572   25.7728 C   0  0  0  0  0  0  0  0  0  0  0  0
   -9.3695   -1.3000   24.1581 C   0  0  0  0  0  0  0  0  0  0  0  0
   -9.7545   -2.5421   23.6849 N   0  0  0  0  0  0  0  0  0  0  0  0
  -10.8646   -2.5171   22.7445 C   0  0  0  0  0  0  0  0  0  0  0  0
  -11.0038   -2.4362   21.3107 C   0  0  0  0  0  0  0  0  0  0  0  0
  -12.1422   -2.7296   20.5389 C   0  0  0  0  0  0  0  0  0  0  0  0
  -13.2988   -3.0836   21.0685 N   0  0  0  0  0  0  0  0  0  0  0  0
  -13.2748   -3.1083   22.4104 C   0  0  0  0  0  0  0  0  0  0  0  0
  -12.1402   -2.8713   23.2326 C   0  0  0  0  0  0  0  0  0  0  0  0
   -8.3646   -2.9495   24.1406 C   0  0  0  0  0  0  0  0  0  0  0  0
   -7.5970   -1.6864   25.3814 C   0  0  0  0  0  0  0  0  0  0  0  0
   -3.1242   -1.7354   26.6736 H   0  0  0  0  0  0  0  0  0  0  0  0
   -1.5521   -6.2655   27.0734 H   0  0  0  0  0  0  0  0  0  0  0  0
   -0.7346   -7.8079   29.0630 H   0  0  0  0  0  0  0  0  0  0  0  0
   -0.3611   -6.8080   31.3825 H   0  0  0  0  0  0  0  0  0  0  0  0
   -1.0487   -4.4266   31.9941 H   0  0  0  0  0  0  0  0  0  0  0  0
   -8.4530   -2.1610   26.8430 H   0  0  0  0  0  0  0  0  0  0  0  0
   -8.3952   -0.5336   26.4771 H   0  0  0  0  0  0  0  0  0  0  0  0
   -8.8669   -0.6916   23.4216 H   0  0  0  0  0  0  0  0  0  0  0  0
  -10.3813   -0.9091   24.2863 H   0  0  0  0  0  0  0  0  0  0  0  0
  -10.2086   -2.3259   20.5873 H   0  0  0  0  0  0  0  0  0  0  0  0
  -12.0994   -2.7145   19.4537 H   0  0  0  0  0  0  0  0  0  0  0  0
  -14.2248   -3.3584   22.8767 H   0  0  0  0  0  0  0  0  0  0  0  0
  -12.3156   -2.9988   24.2882 H   0  0  0  0  0  0  0  0  0  0  0  0
   -7.6214   -2.8408   23.3638 H   0  0  0  0  0  0  0  0  0  0  0  0
   -8.3332   -3.9342   24.6006 H   0  0  0  0  0  0  0  0  0  0  0  0
   -6.8823   -2.0299   24.5339 H   0  0  0  0  0  0  0  0  0  0  0  0
   -7.4875   -0.4416   24.8423 H   0  0  0  0  0  0  0  0  0  0  0  0
  1  2  2  0
  2  3  1  0
  3  4  1  0
  4  5  2  0
  5  6  1  0
  6  7  2  0
  7  8  1  0
  8  9  2  0
  9 10  1  0
 10 11  2  0
 11 12  1  0
  2 13  1  0
 13 14  1  0
 14 15  1  0
 15 16  1  0
 16 17  1  0
 17 18  2  0
 18 19  1  0
 19 20  2  0
 20 21  1  0
 21 22  2  0
 16 23  1  0
 23 24  1  0
 12  4  1  0
 24 13  1  0
 11  6  1  0
 22 17  1  0
  3 25  1  0
  7 26  1  0
  8 27  1  0
  9 28  1  0
 10 29  1  0
 14 30  1  0
 14 31  1  0
 15 32  1  0
 15 33  1  0
 18 34  1  0
 19 35  1  0
 21 36  1  0
 22 37  1  0
 23 38  1  0
 23 39  1  0
 24 40  1  0
 24 41  1  0
M  END
>  <Energy>  (153) 
1375.3949117838399

>  <compound_id>  (153) 
6749

>  <target_id>  (153) 
1

>  <reference_id>  (153) 
69

>  <inspiration_ids>  (153) 
[69, 59]

>  <energy_score>  (153) 
1268.9626844042652

>  <distance_score>  (153) 
12.592127433771827

>  <path>  (153) 
/opt/xchem-fragalysis-2/maxwin/BulkDock/SCRATCH/511021/C6749-P69/C6749-P69.minimised.mol

>  <scratch_subdir>  (153) 
/opt/xchem-fragalysis-2/maxwin/BulkDock/SCRATCH/511021/C6749-P69

>  <fragmenstein_runtime>  (153) 
28.99727439880371

>  <fragmenstein_outcome>  (153) 
too moved

>  <fragmenstein_mode>  (153) 
expansion

>  <fragmenstein_error>  (153) 


$$$$
C6749-P59
     RDKit          3D

 41 44  0  0  0  0  0  0  0  0999 V2000
   -4.9749   -2.5599   30.4550 O   0  0  0  0  0  0  0  0  0  0  0  0
   -5.2223   -3.4840   30.5040 C   0  0  0  0  0  0  0  0  0  0  0  0
   -5.1086   -3.8974   32.1814 N   0  0  0  0  0  0  0  0  0  0  0  0
   -4.8179   -3.0508   33.3984 C   0  0  0  0  0  0  0  0  0  0  0  0
   -3.8220   -2.5860   34.1731 N   0  0  0  0  0  0  0  0  0  0  0  0
   -2.8791   -2.0026   33.3907 C   0  0  0  0  0  0  0  0  0  0  0  0
   -1.4797   -2.0762   33.4592 C   0  0  0  0  0  0  0  0  0  0  0  0
   -0.7272   -1.3981   32.4977 C   0  0  0  0  0  0  0  0  0  0  0  0
   -1.3630   -0.6538   31.5076 C   0  0  0  0  0  0  0  0  0  0  0  0
   -2.7583   -0.5249   31.4839 C   0  0  0  0  0  0  0  0  0  0  0  0
   -3.4973   -1.1791   32.4718 C   0  0  0  0  0  0  0  0  0  0  0  0
   -5.2226   -1.2489   32.9665 S   0  0  0  0  0  0  0  0  0  0  0  0
   -5.5971   -4.8599   29.0139 N   0  0  0  0  0  0  0  0  0  0  0  0
   -5.1294   -3.9388   27.2199 C   0  0  0  0  0  0  0  0  0  0  0  0
   -5.7075   -2.4182   25.7954 C   0  0  0  0  0  0  0  0  0  0  0  0
   -6.8089   -2.9085   24.1879 N   0  0  0  0  0  0  0  0  0  0  0  0
   -8.2621   -2.4347   23.2429 C   0  0  0  0  0  0  0  0  0  0  0  0
   -8.1136   -2.6288   21.4458 C   0  0  0  0  0  0  0  0  0  0  0  0
   -9.7155   -2.5090   20.4402 C   0  0  0  0  0  0  0  0  0  0  0  0
  -10.9345   -2.4275   21.0597 N   0  0  0  0  0  0  0  0  0  0  0  0
  -10.7893   -2.2624   22.4626 C   0  0  0  0  0  0  0  0  0  0  0  0
   -9.6174   -2.2005   23.5103 C   0  0  0  0  0  0  0  0  0  0  0  0
   -6.8439   -4.8160   24.5399 C   0  0  0  0  0  0  0  0  0  0  0  0
   -5.8456   -5.3335   26.7665 C   0  0  0  0  0  0  0  0  0  0  0  0
   -5.2731   -4.8769   32.2656 H   0  0  0  0  0  0  0  0  0  0  0  0
   -1.0086   -2.6812   34.2259 H   0  0  0  0  0  0  0  0  0  0  0  0
    0.3575   -1.4682   32.5140 H   0  0  0  0  0  0  0  0  0  0  0  0
   -0.7710   -0.1597   30.7395 H   0  0  0  0  0  0  0  0  0  0  0  0
   -3.2354    0.0201   30.6832 H   0  0  0  0  0  0  0  0  0  0  0  0
   -5.7857   -3.2052   27.9081 H   0  0  0  0  0  0  0  0  0  0  0  0
   -4.5307   -3.0677   27.6839 H   0  0  0  0  0  0  0  0  0  0  0  0
   -4.6686   -1.9836   25.6773 H   0  0  0  0  0  0  0  0  0  0  0  0
   -6.6067   -1.7018   25.7530 H   0  0  0  0  0  0  0  0  0  0  0  0
   -7.2022   -2.9789   20.9825 H   0  0  0  0  0  0  0  0  0  0  0  0
   -9.8613   -2.3012   19.3852 H   0  0  0  0  0  0  0  0  0  0  0  0
  -11.7809   -2.2318   22.9160 H   0  0  0  0  0  0  0  0  0  0  0  0
  -10.0747   -1.9437   24.4021 H   0  0  0  0  0  0  0  0  0  0  0  0
   -8.0195   -4.4003   24.7778 H   0  0  0  0  0  0  0  0  0  0  0  0
   -7.1452   -5.1947   23.5032 H   0  0  0  0  0  0  0  0  0  0  0  0
   -6.6468   -6.1214   26.5278 H   0  0  0  0  0  0  0  0  0  0  0  0
   -7.0085   -5.3817   27.4332 H   0  0  0  0  0  0  0  0  0  0  0  0
  1  2  2  0
  2  3  1  0
  3  4  1  0
  4  5  2  0
  5  6  1  0
  6  7  2  0
  7  8  1  0
  8  9  2  0
  9 10  1  0
 10 11  2  0
 11 12  1  0
  2 13  1  0
 13 14  1  0
 14 15  1  0
 15 16  1  0
 16 17  1  0
 17 18  2  0
 18 19  1  0
 19 20  2  0
 20 21  1  0
 21 22  2  0
 16 23  1  0
 23 24  1  0
 12  4  1  0
 24 13  1  0
 11  6  1  0
 22 17  1  0
  3 25  1  0
  7 26  1  0
  8 27  1  0
  9 28  1  0
 10 29  1  0
 14 30  1  0
 14 31  1  0
 15 32  1  0
 15 33  1  0
 18 34  1  0
 19 35  1  0
 21 36  1  0
 22 37  1  0
 23 38  1  0
 23 39  1  0
 24 40  1  0
 24 41  1  0
M  END
>  <Energy>  (154) 
2157.0062859759441

>  <compound_id>  (154) 
6749

>  <target_id>  (154) 
1

>  <reference_id>  (154) 
59

>  <inspiration_ids>  (154) 
[69, 59]

>  <energy_score>  (154) 
2050.574058596352

>  <distance_score>  (154) 
11.695298872704761

>  <path>  (154) 
/opt/xchem-fragalysis-2/maxwin/BulkDock/SCRATCH/511021/C6749-P59/C6749-P59.minimised.mol

>  <scratch_subdir>  (154) 
/opt/xchem-fragalysis-2/maxwin/BulkDock/SCRATCH/511021/C6749-P59

>  <fragmenstein_runtime>  (154) 
21.394803047180176

>  <fragmenstein_outcome>  (154) 
too moved

>  <fragmenstein_mode>  (154) 
expansion

>  <fragmenstein_error>  (154) 


$$$$
C40955-P69
     RDKit          3D

 44 46  0  0  0  0  0  0  0  0999 V2000
   -6.5297    4.0716   17.5489 C   0  0  0  0  0  0  0  0  0  0  0  0
   -6.0571    2.4209   17.6510 C   0  0  0  0  0  0  0  0  0  0  0  0
   -5.9341    2.4429   19.1514 C   0  0  0  0  0  0  0  0  0  0  0  0
   -5.1402    3.6012   19.8167 N   0  0  0  0  0  0  0  0  0  0  0  0
   -4.3504    3.6314   21.0024 C   0  0  0  0  0  0  0  0  0  0  0  0
   -4.0319    2.7602   21.7384 O   0  0  0  0  0  0  0  0  0  0  0  0
   -3.9020    5.0026   21.5093 C   0  0  0  0  0  0  0  0  0  0  0  0
   -2.7407    4.9306   22.5774 C   0  0  0  0  0  0  0  0  0  0  0  0
   -2.8580    4.1379   23.8643 C   0  0  0  0  0  0  0  0  0  0  0  0
   -3.7568    4.3092   24.9458 C   0  0  0  0  0  0  0  0  0  0  0  0
   -3.3273    3.4241   25.9017 C   0  0  0  0  0  0  0  0  0  0  0  0
   -2.2419    2.7572   25.4459 O   0  0  0  0  0  0  0  0  0  0  0  0
   -1.9403    3.1947   24.1668 N   0  0  0  0  0  0  0  0  0  0  0  0
   -5.4190    1.0739   16.3991 N   0  0  0  0  0  0  0  0  0  0  0  0
   -4.3870    0.7147   17.1885 C   0  0  0  0  0  0  0  0  0  0  0  0
   -5.9497    0.3051   14.7817 C   0  0  0  0  0  0  0  0  0  0  0  0
   -6.5424    0.8473   13.4612 N   0  0  0  0  0  0  0  0  0  0  0  0
   -6.3606   -0.1762   12.1112 C   0  0  0  0  0  0  0  0  0  0  0  0
   -6.6028   -0.2136   10.3731 C   0  0  0  0  0  0  0  0  0  0  0  0
   -7.6248    0.0626    9.4791 C   0  0  0  0  0  0  0  0  0  0  0  0
   -8.7983   -0.0966   10.0617 C   0  0  0  0  0  0  0  0  0  0  0  0
   -8.6551   -0.6923   11.3310 C   0  0  0  0  0  0  0  0  0  0  0  0
   -7.4013   -0.8415   12.4660 C   0  0  0  0  0  0  0  0  0  0  0  0
   -6.3920   -1.5444   14.4331 S   0  0  0  0  0  0  0  0  0  0  0  0
   -7.3259    4.3897   16.8868 H   0  0  0  0  0  0  0  0  0  0  0  0
   -5.6879    4.7549   17.4160 H   0  0  0  0  0  0  0  0  0  0  0  0
   -6.9905    4.4110   18.4903 H   0  0  0  0  0  0  0  0  0  0  0  0
   -5.0529    2.7038   17.6806 H   0  0  0  0  0  0  0  0  0  0  0  0
   -5.7575    1.5472   19.6746 H   0  0  0  0  0  0  0  0  0  0  0  0
   -6.9702    2.6365   19.3861 H   0  0  0  0  0  0  0  0  0  0  0  0
   -5.2772    4.5463   19.4895 H   0  0  0  0  0  0  0  0  0  0  0  0
   -4.7726    5.4928   21.9587 H   0  0  0  0  0  0  0  0  0  0  0  0
   -3.5647    5.6043   20.6585 H   0  0  0  0  0  0  0  0  0  0  0  0
   -2.5291    5.9681   22.8717 H   0  0  0  0  0  0  0  0  0  0  0  0
   -1.8352    4.5944   22.0552 H   0  0  0  0  0  0  0  0  0  0  0  0
   -4.5842    4.9962   25.0242 H   0  0  0  0  0  0  0  0  0  0  0  0
   -3.6535    3.1693   26.8986 H   0  0  0  0  0  0  0  0  0  0  0  0
   -5.1472    0.5886   17.9518 H   0  0  0  0  0  0  0  0  0  0  0  0
   -3.8912   -0.1878   17.3606 H   0  0  0  0  0  0  0  0  0  0  0  0
   -3.6936    1.5505   17.3856 H   0  0  0  0  0  0  0  0  0  0  0  0
   -5.6250   -0.3144    9.8417 H   0  0  0  0  0  0  0  0  0  0  0  0
   -7.4826    0.2111    8.4200 H   0  0  0  0  0  0  0  0  0  0  0  0
   -9.7341   -0.1080    9.5179 H   0  0  0  0  0  0  0  0  0  0  0  0
   -9.5436   -1.3794   11.4603 H   0  0  0  0  0  0  0  0  0  0  0  0
  1  2  1  0
  2  3  1  0
  3  4  1  0
  4  5  1  0
  5  6  2  0
  5  7  1  0
  7  8  1  0
  8  9  1  0
  9 10  1  0
 10 11  2  0
 11 12  1  0
 12 13  1  0
  2 14  1  0
 14 15  1  0
 14 16  1  0
 16 17  2  0
 17 18  1  0
 18 19  2  0
 19 20  1  0
 20 21  2  0
 21 22  1  0
 22 23  2  0
 23 24  1  0
 13  9  2  0
 24 16  1  0
 23 18  1  0
  1 25  1  0
  1 26  1  0
  1 27  1  0
  2 28  1  0
  3 29  1  0
  3 30  1  0
  4 31  1  0
  7 32  1  0
  7 33  1  0
  8 34  1  0
  8 35  1  0
 10 36  1  0
 11 37  1  0
 15 38  1  0
 15 39  1  0
 15 40  1  0
 19 41  1  0
 20 42  1  0
 21 43  1  0
 22 44  1  0
M  END
>  <Energy>  (155) 
645.48198409016015

>  <compound_id>  (155) 
40955

>  <target_id>  (155) 
1

>  <reference_id>  (155) 
69

>  <inspiration_ids>  (155) 
[69, 59]

>  <energy_score>  (155) 
549.1310304859667

>  <distance_score>  (155) 
9.870586655253492

>  <path>  (155) 
/opt/xchem-fragalysis-2/maxwin/BulkDock/SCRATCH/511021/C40955-P69/C40955-P69.minimised.mol

>  <scratch_subdir>  (155) 
/opt/xchem-fragalysis-2/maxwin/BulkDock/SCRATCH/511021/C40955-P69

>  <fragmenstein_runtime>  (155) 
16.494438409805298

>  <fragmenstein_outcome>  (155) 
too moved

>  <fragmenstein_mode>  (155) 
expansion

>  <fragmenstein_error>  (155) 


$$$$
C40955-P59
     RDKit          3D

 44 46  0  0  0  0  0  0  0  0999 V2000
  -11.8430   -3.3313   24.7790 C   0  0  0  0  0  0  0  0  0  0  0  0
  -10.6889   -2.9347   23.8613 C   0  0  0  0  0  0  0  0  0  0  0  0
   -9.3305   -2.7967   24.6654 C   0  0  0  0  0  0  0  0  0  0  0  0
   -9.1566   -2.2782   26.0687 N   0  0  0  0  0  0  0  0  0  0  0  0
   -8.9592   -2.9861   27.3320 C   0  0  0  0  0  0  0  0  0  0  0  0
   -8.9683   -4.1546   27.5752 O   0  0  0  0  0  0  0  0  0  0  0  0
   -8.5587   -2.0099   28.5644 C   0  0  0  0  0  0  0  0  0  0  0  0
   -7.8341   -2.7038   29.9562 C   0  0  0  0  0  0  0  0  0  0  0  0
   -6.9944   -1.9581   31.4327 C   0  0  0  0  0  0  0  0  0  0  0  0
   -5.6549   -2.2825   32.0421 C   0  0  0  0  0  0  0  0  0  0  0  0
   -5.4667   -1.4010   33.0699 C   0  0  0  0  0  0  0  0  0  0  0  0
   -6.5399   -0.5974   33.1349 O   0  0  0  0  0  0  0  0  0  0  0  0
   -7.4288   -0.8891   32.1337 N   0  0  0  0  0  0  0  0  0  0  0  0
  -10.5893   -3.9405   22.6918 N   0  0  0  0  0  0  0  0  0  0  0  0
  -10.1974   -5.3121   23.0241 C   0  0  0  0  0  0  0  0  0  0  0  0
  -10.9891   -3.7708   21.3475 C   0  0  0  0  0  0  0  0  0  0  0  0
  -10.9065   -4.7277   20.4195 N   0  0  0  0  0  0  0  0  0  0  0  0
  -11.3610   -4.3219   19.1516 C   0  0  0  0  0  0  0  0  0  0  0  0
  -11.4047   -5.0909   17.9542 C   0  0  0  0  0  0  0  0  0  0  0  0
  -11.7363   -4.4898   16.7257 C   0  0  0  0  0  0  0  0  0  0  0  0
  -12.0578   -3.1389   16.6760 C   0  0  0  0  0  0  0  0  0  0  0  0
  -12.0847   -2.3748   17.8511 C   0  0  0  0  0  0  0  0  0  0  0  0
  -11.7435   -2.9887   19.0806 C   0  0  0  0  0  0  0  0  0  0  0  0
  -11.7456   -2.3624   20.6931 S   0  0  0  0  0  0  0  0  0  0  0  0
  -12.7701   -3.4498   24.2082 H   0  0  0  0  0  0  0  0  0  0  0  0
  -12.0129   -2.5630   25.5403 H   0  0  0  0  0  0  0  0  0  0  0  0
  -11.6467   -4.2759   25.2959 H   0  0  0  0  0  0  0  0  0  0  0  0
  -10.9153   -1.9440   23.4513 H   0  0  0  0  0  0  0  0  0  0  0  0
   -8.8729   -3.7870   24.6992 H   0  0  0  0  0  0  0  0  0  0  0  0
   -8.6613   -2.1807   24.0592 H   0  0  0  0  0  0  0  0  0  0  0  0
   -8.9992   -1.2879   26.2156 H   0  0  0  0  0  0  0  0  0  0  0  0
   -7.9054   -1.2821   28.1202 H   0  0  0  0  0  0  0  0  0  0  0  0
   -9.4829   -1.4941   28.8262 H   0  0  0  0  0  0  0  0  0  0  0  0
   -8.6612   -3.2792   30.3041 H   0  0  0  0  0  0  0  0  0  0  0  0
   -7.0342   -3.3527   29.6312 H   0  0  0  0  0  0  0  0  0  0  0  0
   -4.9214   -2.9988   31.7118 H   0  0  0  0  0  0  0  0  0  0  0  0
   -4.6844   -1.2250   33.7925 H   0  0  0  0  0  0  0  0  0  0  0  0
  -10.0581   -5.4633   24.0984 H   0  0  0  0  0  0  0  0  0  0  0  0
  -10.9674   -6.0272   22.7113 H   0  0  0  0  0  0  0  0  0  0  0  0
   -9.2536   -5.5670   22.5295 H   0  0  0  0  0  0  0  0  0  0  0  0
  -11.1171   -6.1371   17.9952 H   0  0  0  0  0  0  0  0  0  0  0  0
  -11.7263   -5.0851   15.8163 H   0  0  0  0  0  0  0  0  0  0  0  0
  -12.3119   -2.6752   15.7260 H   0  0  0  0  0  0  0  0  0  0  0  0
  -12.3766   -1.3298   17.8195 H   0  0  0  0  0  0  0  0  0  0  0  0
  1  2  1  0
  2  3  1  0
  3  4  1  0
  4  5  1  0
  5  6  2  0
  5  7  1  0
  7  8  1  0
  8  9  1  0
  9 10  1  0
 10 11  2  0
 11 12  1  0
 12 13  1  0
  2 14  1  0
 14 15  1  0
 14 16  1  0
 16 17  2  0
 17 18  1  0
 18 19  2  0
 19 20  1  0
 20 21  2  0
 21 22  1  0
 22 23  2  0
 23 24  1  0
 13  9  2  0
 24 16  1  0
 23 18  1  0
  1 25  1  0
  1 26  1  0
  1 27  1  0
  2 28  1  0
  3 29  1  0
  3 30  1  0
  4 31  1  0
  7 32  1  0
  7 33  1  0
  8 34  1  0
  8 35  1  0
 10 36  1  0
 11 37  1  0
 15 38  1  0
 15 39  1  0
 15 40  1  0
 19 41  1  0
 20 42  1  0
 21 43  1  0
 22 44  1  0
M  END
>  <Energy>  (156) 
77.554459153351701

>  <compound_id>  (156) 
40955

>  <target_id>  (156) 
1

>  <reference_id>  (156) 
59

>  <inspiration_ids>  (156) 
[69, 59]

>  <energy_score>  (156) 
-18.796494450833166

>  <distance_score>  (156) 
10.290605543598941

>  <path>  (156) 
/opt/xchem-fragalysis-2/maxwin/BulkDock/SCRATCH/511021/C40955-P59/C40955-P59.minimised.mol

>  <scratch_subdir>  (156) 
/opt/xchem-fragalysis-2/maxwin/BulkDock/SCRATCH/511021/C40955-P59

>  <fragmenstein_runtime>  (156) 
17.10181498527527

>  <fragmenstein_outcome>  (156) 
too moved

>  <fragmenstein_mode>  (156) 
expansion

>  <fragmenstein_error>  (156) 


$$$$
C40956-P69
     RDKit          3D

 41 43  0  0  0  0  0  0  0  0999 V2000
   -3.5119   -2.2371   26.2080 C   0  0  0  0  0  0  0  0  0  0  0  0
   -3.5045   -2.5732   24.1154 C   0  0  0  0  0  0  0  0  0  0  0  0
   -3.3063   -1.3791   22.4944 C   0  0  0  0  0  0  0  0  0  0  0  0
   -4.2257   -0.5166   20.6571 C   0  0  0  0  0  0  0  0  0  0  0  0
   -5.1797   -0.1541   18.7324 N   0  0  0  0  0  0  0  0  0  0  0  0
   -4.5540   -0.3488   16.9469 C   0  0  0  0  0  0  0  0  0  0  0  0
   -3.3964   -0.6542   16.7104 O   0  0  0  0  0  0  0  0  0  0  0  0
   -5.6008   -0.2943   15.2410 C   0  0  0  0  0  0  0  0  0  0  0  0
   -6.3182    0.3092   14.0132 C   0  0  0  0  0  0  0  0  0  0  0  0
   -7.1735   -0.1425   12.5272 C   0  0  0  0  0  0  0  0  0  0  0  0
   -6.7552   -0.3694   11.3607 C   0  0  0  0  0  0  0  0  0  0  0  0
   -7.1994   -0.3298   10.0537 N   0  0  0  0  0  0  0  0  0  0  0  0
   -6.1712   -0.4140    9.2600 C   0  0  0  0  0  0  0  0  0  0  0  0
   -4.6267   -0.3810   10.0534 S   0  0  0  0  0  0  0  0  0  0  0  0
   -5.5619   -0.5863   12.0949 C   0  0  0  0  0  0  0  0  0  0  0  0
   -5.5285   -0.9083   13.9900 C   0  0  0  0  0  0  0  0  0  0  0  0
   -3.5715   -1.1829   24.4838 N   0  0  0  0  0  0  0  0  0  0  0  0
   -3.4431    0.3948   25.7222 C   0  0  0  0  0  0  0  0  0  0  0  0
   -2.5108    0.6517   26.9810 C   0  0  0  0  0  0  0  0  0  0  0  0
   -1.3619    0.0539   27.5339 C   0  0  0  0  0  0  0  0  0  0  0  0
   -0.9989    0.8291   28.5992 C   0  0  0  0  0  0  0  0  0  0  0  0
   -1.8091    1.8998   28.6463 O   0  0  0  0  0  0  0  0  0  0  0  0
   -2.7126    1.8282   27.6150 N   0  0  0  0  0  0  0  0  0  0  0  0
   -2.5868   -2.3071   26.8074 H   0  0  0  0  0  0  0  0  0  0  0  0
   -4.4365   -2.4157   26.8098 H   0  0  0  0  0  0  0  0  0  0  0  0
   -3.5158   -1.2597   26.5950 H   0  0  0  0  0  0  0  0  0  0  0  0
   -4.4939   -2.8198   23.8298 H   0  0  0  0  0  0  0  0  0  0  0  0
   -3.1263   -3.5819   23.9752 H   0  0  0  0  0  0  0  0  0  0  0  0
   -2.3121   -1.7333   22.3352 H   0  0  0  0  0  0  0  0  0  0  0  0
   -3.3470   -0.2304   21.0891 H   0  0  0  0  0  0  0  0  0  0  0  0
   -4.1299   -1.3825   19.6970 H   0  0  0  0  0  0  0  0  0  0  0  0
   -6.1147    0.1801   18.7101 H   0  0  0  0  0  0  0  0  0  0  0  0
   -6.4577    1.4122   13.7376 H   0  0  0  0  0  0  0  0  0  0  0  0
   -7.8643   -1.0006   12.5693 H   0  0  0  0  0  0  0  0  0  0  0  0
   -6.2507   -0.4379    8.1818 H   0  0  0  0  0  0  0  0  0  0  0  0
   -5.9567   -1.9209   14.2490 H   0  0  0  0  0  0  0  0  0  0  0  0
   -4.3544   -1.5637   25.0039 H   0  0  0  0  0  0  0  0  0  0  0  0
   -3.0244    1.3520   25.3183 H   0  0  0  0  0  0  0  0  0  0  0  0
   -4.4498    0.8320   25.8103 H   0  0  0  0  0  0  0  0  0  0  0  0
   -0.8458   -0.8299   27.2252 H   0  0  0  0  0  0  0  0  0  0  0  0
   -0.2282    0.7784   29.3519 H   0  0  0  0  0  0  0  0  0  0  0  0
  1  2  1  0
  2  3  1  0
  3  4  1  0
  4  5  1  0
  5  6  1  0
  6  7  2  0
  6  8  1  0
  8  9  2  0
  9 10  1  0
 10 11  2  0
 11 12  1  0
 12 13  2  0
 13 14  1  0
 14 15  1  0
 15 16  2  0
  3 17  1  0
 17 18  1  0
 18 19  1  0
 19 20  1  0
 20 21  2  0
 21 22  1  0
 22 23  1  0
 16  8  1  0
 23 19  2  0
 15 11  1  0
  1 24  1  0
  1 25  1  0
  1 26  1  0
  2 27  1  0
  2 28  1  0
  3 29  1  0
  4 30  1  0
  4 31  1  0
  5 32  1  0
  9 33  1  0
 10 34  1  0
 13 35  1  0
 16 36  1  0
 17 37  1  0
 18 38  1  0
 18 39  1  0
 20 40  1  0
 21 41  1  0
M  END
>  <Energy>  (157) 
1857.2002324683494

>  <compound_id>  (157) 
40956

>  <target_id>  (157) 
1

>  <reference_id>  (157) 
69

>  <inspiration_ids>  (157) 
[69, 59]

>  <energy_score>  (157) 
1729.4066349594848

>  <distance_score>  (157) 
7.184032337619931

>  <path>  (157) 
/opt/xchem-fragalysis-2/maxwin/BulkDock/SCRATCH/511021/C40956-P69/C40956-P69.minimised.mol

>  <scratch_subdir>  (157) 
/opt/xchem-fragalysis-2/maxwin/BulkDock/SCRATCH/511021/C40956-P69

>  <fragmenstein_runtime>  (157) 
16.898627281188965

>  <fragmenstein_outcome>  (157) 
too moved

>  <fragmenstein_mode>  (157) 
expansion

>  <fragmenstein_error>  (157) 


$$$$
C40956-P59
     RDKit          3D

 41 43  0  0  0  0  0  0  0  0999 V2000
   -3.5966    2.0599   26.7643 C   0  0  0  0  0  0  0  0  0  0  0  0
   -3.1444    2.8606   25.5572 C   0  0  0  0  0  0  0  0  0  0  0  0
   -1.9134    3.7376   25.7626 C   0  0  0  0  0  0  0  0  0  0  0  0
   -1.8907    4.9477   24.6812 C   0  0  0  0  0  0  0  0  0  0  0  0
   -2.1165    4.8501   23.2070 N   0  0  0  0  0  0  0  0  0  0  0  0
   -2.9877    5.6266   22.3156 C   0  0  0  0  0  0  0  0  0  0  0  0
   -3.7965    6.4810   22.5619 O   0  0  0  0  0  0  0  0  0  0  0  0
   -2.8318    5.4601   20.7788 C   0  0  0  0  0  0  0  0  0  0  0  0
   -1.5953    5.3744   20.1260 C   0  0  0  0  0  0  0  0  0  0  0  0
   -1.4908    5.3221   18.7014 C   0  0  0  0  0  0  0  0  0  0  0  0
   -2.6355    5.4130   17.8777 C   0  0  0  0  0  0  0  0  0  0  0  0
   -2.6769    5.3558   16.4853 N   0  0  0  0  0  0  0  0  0  0  0  0
   -3.8961    5.6246   16.0841 C   0  0  0  0  0  0  0  0  0  0  0  0
   -5.0661    5.8642   17.3145 S   0  0  0  0  0  0  0  0  0  0  0  0
   -3.8634    5.5932   18.5208 C   0  0  0  0  0  0  0  0  0  0  0  0
   -3.9788    5.5872   19.9443 C   0  0  0  0  0  0  0  0  0  0  0  0
   -0.6335    2.9909   25.8205 N   0  0  0  0  0  0  0  0  0  0  0  0
   -0.4833    1.8840   26.7936 C   0  0  0  0  0  0  0  0  0  0  0  0
   -0.2129    2.2518   28.2143 C   0  0  0  0  0  0  0  0  0  0  0  0
    0.1111    3.4994   28.7887 C   0  0  0  0  0  0  0  0  0  0  0  0
    0.4159    3.2070   30.0916 C   0  0  0  0  0  0  0  0  0  0  0  0
    0.2619    1.8805   30.3078 O   0  0  0  0  0  0  0  0  0  0  0  0
   -0.1390    1.2729   29.1339 N   0  0  0  0  0  0  0  0  0  0  0  0
   -4.6865    2.0943   26.8334 H   0  0  0  0  0  0  0  0  0  0  0  0
   -3.1570    2.4416   27.6846 H   0  0  0  0  0  0  0  0  0  0  0  0
   -3.3147    1.0116   26.6531 H   0  0  0  0  0  0  0  0  0  0  0  0
   -3.9812    3.4825   25.2212 H   0  0  0  0  0  0  0  0  0  0  0  0
   -2.9117    2.1832   24.7385 H   0  0  0  0  0  0  0  0  0  0  0  0
   -2.0155    4.2507   26.7284 H   0  0  0  0  0  0  0  0  0  0  0  0
   -0.9262    5.4612   24.7822 H   0  0  0  0  0  0  0  0  0  0  0  0
   -2.6427    5.6702   25.0246 H   0  0  0  0  0  0  0  0  0  0  0  0
   -1.5004    4.2735   22.6480 H   0  0  0  0  0  0  0  0  0  0  0  0
   -0.6756    5.3443   20.7070 H   0  0  0  0  0  0  0  0  0  0  0  0
   -0.5135    5.2154   18.2368 H   0  0  0  0  0  0  0  0  0  0  0  0
   -4.1590    5.7089   15.0392 H   0  0  0  0  0  0  0  0  0  0  0  0
   -4.9564    5.7281   20.4031 H   0  0  0  0  0  0  0  0  0  0  0  0
    0.1363    3.6458   25.9512 H   0  0  0  0  0  0  0  0  0  0  0  0
   -1.2642    1.1313   26.7005 H   0  0  0  0  0  0  0  0  0  0  0  0
    0.4276    1.3600   26.4852 H   0  0  0  0  0  0  0  0  0  0  0  0
    0.1415    4.4732   28.3252 H   0  0  0  0  0  0  0  0  0  0  0  0
    0.7240    3.7939   30.9438 H   0  0  0  0  0  0  0  0  0  0  0  0
  1  2  1  0
  2  3  1  0
  3  4  1  0
  4  5  1  0
  5  6  1  0
  6  7  2  0
  6  8  1  0
  8  9  2  0
  9 10  1  0
 10 11  2  0
 11 12  1  0
 12 13  2  0
 13 14  1  0
 14 15  1  0
 15 16  2  0
  3 17  1  0
 17 18  1  0
 18 19  1  0
 19 20  1  0
 20 21  2  0
 21 22  1  0
 22 23  1  0
 16  8  1  0
 23 19  2  0
 15 11  1  0
  1 24  1  0
  1 25  1  0
  1 26  1  0
  2 27  1  0
  2 28  1  0
  3 29  1  0
  4 30  1  0
  4 31  1  0
  5 32  1  0
  9 33  1  0
 10 34  1  0
 13 35  1  0
 16 36  1  0
 17 37  1  0
 18 38  1  0
 18 39  1  0
 20 40  1  0
 21 41  1  0
M  END
>  <Energy>  (158) 
74.964227528605875

>  <compound_id>  (158) 
40956

>  <target_id>  (158) 
1

>  <reference_id>  (158) 
59

>  <inspiration_ids>  (158) 
[69, 59]

>  <energy_score>  (158) 
-52.829369980282166

>  <distance_score>  (158) 
11.228070060765527

>  <path>  (158) 
/opt/xchem-fragalysis-2/maxwin/BulkDock/SCRATCH/511021/C40956-P59/C40956-P59.minimised.mol

>  <scratch_subdir>  (158) 
/opt/xchem-fragalysis-2/maxwin/BulkDock/SCRATCH/511021/C40956-P59

>  <fragmenstein_runtime>  (158) 
25.263598203659058

>  <fragmenstein_outcome>  (158) 
too moved

>  <fragmenstein_mode>  (158) 
expansion

>  <fragmenstein_error>  (158) 


$$$$
C40957-P69
     RDKit          3D

 44 46  0  0  0  0  0  0  0  0999 V2000
   -8.3040   -1.3095   24.6742 C   0  0  0  0  0  0  0  0  0  0  0  0
   -7.4794    0.0346   25.0941 C   0  0  0  0  0  0  0  0  0  0  0  0
   -6.3026    1.3784   24.2674 C   0  0  0  0  0  0  0  0  0  0  0  0
   -5.9304    1.9952   22.1082 C   0  0  0  0  0  0  0  0  0  0  0  0
   -5.4075    1.7098   20.1973 N   0  0  0  0  0  0  0  0  0  0  0  0
   -6.3441    1.1465   18.7983 C   0  0  0  0  0  0  0  0  0  0  0  0
   -7.5429    0.9337   18.7796 O   0  0  0  0  0  0  0  0  0  0  0  0
   -5.5686    0.5969   17.1486 C   0  0  0  0  0  0  0  0  0  0  0  0
   -6.5480   -0.5190   16.8216 C   0  0  0  0  0  0  0  0  0  0  0  0
   -6.9566   -1.7608   15.7898 C   0  0  0  0  0  0  0  0  0  0  0  0
   -6.6584   -1.6130   14.4479 C   0  0  0  0  0  0  0  0  0  0  0  0
   -7.7734   -1.3490   12.9292 N   0  0  0  0  0  0  0  0  0  0  0  0
   -7.3633   -0.5724   11.9576 C   0  0  0  0  0  0  0  0  0  0  0  0
   -7.9178   -0.1333   10.5980 C   0  0  0  0  0  0  0  0  0  0  0  0
   -5.8812   -0.3995   12.4587 S   0  0  0  0  0  0  0  0  0  0  0  0
   -5.7283   -0.6344   14.4972 C   0  0  0  0  0  0  0  0  0  0  0  0
   -5.0160    0.1490   15.8627 C   0  0  0  0  0  0  0  0  0  0  0  0
   -5.7609    2.5106   25.5377 N   0  0  0  0  0  0  0  0  0  0  0  0
   -4.2449    2.3559   25.7613 C   0  0  0  0  0  0  0  0  0  0  0  0
   -3.3546    2.8929   26.8383 C   0  0  0  0  0  0  0  0  0  0  0  0
   -2.4562    2.0793   27.6045 C   0  0  0  0  0  0  0  0  0  0  0  0
   -1.4982    2.9438   28.0514 C   0  0  0  0  0  0  0  0  0  0  0  0
   -1.8028    4.1965   27.6422 O   0  0  0  0  0  0  0  0  0  0  0  0
   -2.9261    4.1636   26.8351 N   0  0  0  0  0  0  0  0  0  0  0  0
   -7.6792   -2.1676   24.4172 H   0  0  0  0  0  0  0  0  0  0  0  0
   -9.0111   -1.1653   23.8517 H   0  0  0  0  0  0  0  0  0  0  0  0
   -8.8410   -1.6964   25.5548 H   0  0  0  0  0  0  0  0  0  0  0  0
   -7.9628    0.5402   25.9346 H   0  0  0  0  0  0  0  0  0  0  0  0
   -6.7823   -0.7009   25.4320 H   0  0  0  0  0  0  0  0  0  0  0  0
   -5.5949    0.8248   24.8502 H   0  0  0  0  0  0  0  0  0  0  0  0
   -5.2436    2.9172   22.1337 H   0  0  0  0  0  0  0  0  0  0  0  0
   -6.9809    1.9086   21.9686 H   0  0  0  0  0  0  0  0  0  0  0  0
   -4.4778    1.8830   19.9195 H   0  0  0  0  0  0  0  0  0  0  0  0
   -7.4034   -0.6268   17.4897 H   0  0  0  0  0  0  0  0  0  0  0  0
   -7.7671   -2.4028   16.1210 H   0  0  0  0  0  0  0  0  0  0  0  0
   -8.9543   -0.4585   10.4440 H   0  0  0  0  0  0  0  0  0  0  0  0
   -7.9668    0.9411   10.4663 H   0  0  0  0  0  0  0  0  0  0  0  0
   -7.3013   -0.5165    9.7756 H   0  0  0  0  0  0  0  0  0  0  0  0
   -4.0967    0.6727   15.5709 H   0  0  0  0  0  0  0  0  0  0  0  0
   -5.8396    3.4220   25.0831 H   0  0  0  0  0  0  0  0  0  0  0  0
   -3.7550    2.7797   24.8778 H   0  0  0  0  0  0  0  0  0  0  0  0
   -4.0451    1.2898   25.8511 H   0  0  0  0  0  0  0  0  0  0  0  0
   -2.4479    1.0042   27.7120 H   0  0  0  0  0  0  0  0  0  0  0  0
   -0.5956    2.8454   28.6348 H   0  0  0  0  0  0  0  0  0  0  0  0
  1  2  1  0
  2  3  1  0
  3  4  1  0
  4  5  1  0
  5  6  1  0
  6  7  2  0
  6  8  1  0
  8  9  2  0
  9 10  1  0
 10 11  2  0
 11 12  1  0
 12 13  2  0
 13 14  1  0
 13 15  1  0
 15 16  1  0
 16 17  2  0
  3 18  1  0
 18 19  1  0
 19 20  1  0
 20 21  1  0
 21 22  2  0
 22 23  1  0
 23 24  1  0
 17  8  1  0
 24 20  2  0
 16 11  1  0
  1 25  1  0
  1 26  1  0
  1 27  1  0
  2 28  1  0
  2 29  1  0
  3 30  1  0
  4 31  1  0
  4 32  1  0
  5 33  1  0
  9 34  1  0
 10 35  1  0
 14 36  1  0
 14 37  1  0
 14 38  1  0
 17 39  1  0
 18 40  1  0
 19 41  1  0
 19 42  1  0
 21 43  1  0
 22 44  1  0
M  END
>  <Energy>  (159) 
932.05868558927091

>  <compound_id>  (159) 
40957

>  <target_id>  (159) 
1

>  <reference_id>  (159) 
69

>  <inspiration_ids>  (159) 
[69, 59]

>  <energy_score>  (159) 
784.0358862423561

>  <distance_score>  (159) 
8.305470705625291

>  <path>  (159) 
/opt/xchem-fragalysis-2/maxwin/BulkDock/SCRATCH/511021/C40957-P69/C40957-P69.minimised.mol

>  <scratch_subdir>  (159) 
/opt/xchem-fragalysis-2/maxwin/BulkDock/SCRATCH/511021/C40957-P69

>  <fragmenstein_runtime>  (159) 
22.629331827163696

>  <fragmenstein_outcome>  (159) 
too moved

>  <fragmenstein_mode>  (159) 
expansion

>  <fragmenstein_error>  (159) 


$$$$
C40957-P59
     RDKit          3D

 44 46  0  0  0  0  0  0  0  0999 V2000
   -3.8364    2.3655   26.7278 C   0  0  0  0  0  0  0  0  0  0  0  0
   -3.2358    2.7994   25.4112 C   0  0  0  0  0  0  0  0  0  0  0  0
   -2.0598    3.7733   25.5010 C   0  0  0  0  0  0  0  0  0  0  0  0
   -1.3642    3.9832   24.0719 C   0  0  0  0  0  0  0  0  0  0  0  0
   -2.1015    4.3820   22.8194 N   0  0  0  0  0  0  0  0  0  0  0  0
   -1.7814    5.3822   21.7945 C   0  0  0  0  0  0  0  0  0  0  0  0
   -0.8930    6.1892   21.7405 O   0  0  0  0  0  0  0  0  0  0  0  0
   -2.6146    5.4005   20.4716 C   0  0  0  0  0  0  0  0  0  0  0  0
   -3.9916    5.1992   20.3391 C   0  0  0  0  0  0  0  0  0  0  0  0
   -4.6313    5.1844   19.0551 C   0  0  0  0  0  0  0  0  0  0  0  0
   -3.8948    5.3773   17.8564 C   0  0  0  0  0  0  0  0  0  0  0  0
   -4.3849    5.4553   16.5517 N   0  0  0  0  0  0  0  0  0  0  0  0
   -3.4084    5.7672   15.7265 C   0  0  0  0  0  0  0  0  0  0  0  0
   -3.5989    6.2337   14.3257 C   0  0  0  0  0  0  0  0  0  0  0  0
   -1.8334    5.7159   16.4023 S   0  0  0  0  0  0  0  0  0  0  0  0
   -2.5169    5.5537   17.9818 C   0  0  0  0  0  0  0  0  0  0  0  0
   -1.8822    5.5811   19.2566 C   0  0  0  0  0  0  0  0  0  0  0  0
   -1.1310    3.4225   26.6260 N   0  0  0  0  0  0  0  0  0  0  0  0
   -0.5957    2.0578   26.6651 C   0  0  0  0  0  0  0  0  0  0  0  0
   -0.5888    1.4107   28.0216 C   0  0  0  0  0  0  0  0  0  0  0  0
   -1.0743    0.1136   28.3405 C   0  0  0  0  0  0  0  0  0  0  0  0
   -0.7604   -0.0513   29.6614 C   0  0  0  0  0  0  0  0  0  0  0  0
   -0.1295    1.0573   30.1175 O   0  0  0  0  0  0  0  0  0  0  0  0
   -0.0160    1.9805   29.0911 N   0  0  0  0  0  0  0  0  0  0  0  0
   -4.9030    2.1614   26.6091 H   0  0  0  0  0  0  0  0  0  0  0  0
   -3.3585    1.4584   27.0974 H   0  0  0  0  0  0  0  0  0  0  0  0
   -3.6849    3.1602   27.4495 H   0  0  0  0  0  0  0  0  0  0  0  0
   -4.0173    3.2699   24.8042 H   0  0  0  0  0  0  0  0  0  0  0  0
   -2.8905    1.9114   24.8911 H   0  0  0  0  0  0  0  0  0  0  0  0
   -2.4608    4.7584   25.7523 H   0  0  0  0  0  0  0  0  0  0  0  0
   -0.8701    3.0430   23.8008 H   0  0  0  0  0  0  0  0  0  0  0  0
   -0.5677    4.7273   24.1934 H   0  0  0  0  0  0  0  0  0  0  0  0
   -2.9730    3.9250   22.5759 H   0  0  0  0  0  0  0  0  0  0  0  0
   -4.6019    5.0619   21.2274 H   0  0  0  0  0  0  0  0  0  0  0  0
   -5.7062    5.0364   18.9960 H   0  0  0  0  0  0  0  0  0  0  0  0
   -2.8398    5.8225   13.6531 H   0  0  0  0  0  0  0  0  0  0  0  0
   -4.5853    5.9389   13.9540 H   0  0  0  0  0  0  0  0  0  0  0  0
   -3.5395    7.3262   14.2830 H   0  0  0  0  0  0  0  0  0  0  0  0
   -0.8025    5.7231   19.3055 H   0  0  0  0  0  0  0  0  0  0  0  0
   -1.5736    3.6425   27.5219 H   0  0  0  0  0  0  0  0  0  0  0  0
    0.4321    2.0870   26.2892 H   0  0  0  0  0  0  0  0  0  0  0  0
   -1.1653    1.3970   26.0145 H   0  0  0  0  0  0  0  0  0  0  0  0
   -1.5567   -0.5986   27.6851 H   0  0  0  0  0  0  0  0  0  0  0  0
   -0.8923   -0.8457   30.3796 H   0  0  0  0  0  0  0  0  0  0  0  0
  1  2  1  0
  2  3  1  0
  3  4  1  0
  4  5  1  0
  5  6  1  0
  6  7  2  0
  6  8  1  0
  8  9  2  0
  9 10  1  0
 10 11  2  0
 11 12  1  0
 12 13  2  0
 13 14  1  0
 13 15  1  0
 15 16  1  0
 16 17  2  0
  3 18  1  0
 18 19  1  0
 19 20  1  0
 20 21  1  0
 21 22  2  0
 22 23  1  0
 23 24  1  0
 17  8  1  0
 24 20  2  0
 16 11  1  0
  1 25  1  0
  1 26  1  0
  1 27  1  0
  2 28  1  0
  2 29  1  0
  3 30  1  0
  4 31  1  0
  4 32  1  0
  5 33  1  0
  9 34  1  0
 10 35  1  0
 14 36  1  0
 14 37  1  0
 14 38  1  0
 17 39  1  0
 18 40  1  0
 19 41  1  0
 19 42  1  0
 21 43  1  0
 22 44  1  0
M  END
>  <Energy>  (160) 
78.231621747620139

>  <compound_id>  (160) 
40957

>  <target_id>  (160) 
1

>  <reference_id>  (160) 
59

>  <inspiration_ids>  (160) 
[69, 59]

>  <energy_score>  (160) 
-69.79117759929858

>  <distance_score>  (160) 
10.970475559059144

>  <path>  (160) 
/opt/xchem-fragalysis-2/maxwin/BulkDock/SCRATCH/511021/C40957-P59/C40957-P59.minimised.mol

>  <scratch_subdir>  (160) 
/opt/xchem-fragalysis-2/maxwin/BulkDock/SCRATCH/511021/C40957-P59

>  <fragmenstein_runtime>  (160) 
30.158714294433594

>  <fragmenstein_outcome>  (160) 
too moved

>  <fragmenstein_mode>  (160) 
expansion

>  <fragmenstein_error>  (160) 


$$$$
C40958-P69
     RDKit          3D

 39 41  0  0  0  0  0  0  0  0999 V2000
  -13.6800   -5.3226   23.0802 O   0  0  0  0  0  0  0  0  0  0  0  0
  -13.4866   -4.1525   22.9021 C   0  0  0  0  0  0  0  0  0  0  0  0
  -12.9459   -3.1411   23.7854 N   0  0  0  0  0  0  0  0  0  0  0  0
  -12.5563   -3.2083   25.2045 C   0  0  0  0  0  0  0  0  0  0  0  0
  -11.6120   -2.1543   25.8573 C   0  0  0  0  0  0  0  0  0  0  0  0
  -11.8378   -0.8627   25.2881 O   0  0  0  0  0  0  0  0  0  0  0  0
  -10.0933   -2.4834   25.8448 C   0  0  0  0  0  0  0  0  0  0  0  0
   -9.2780   -1.2650   25.9923 N   0  0  0  0  0  0  0  0  0  0  0  0
   -9.3722   -0.6443   27.3121 C   0  0  0  0  0  0  0  0  0  0  0  0
   -9.3278    0.8441   27.1636 C   0  0  0  0  0  0  0  0  0  0  0  0
   -8.8138    1.6307   26.1017 C   0  0  0  0  0  0  0  0  0  0  0  0
   -8.9044    2.9179   26.5561 C   0  0  0  0  0  0  0  0  0  0  0  0
   -9.4670    2.9216   27.7859 O   0  0  0  0  0  0  0  0  0  0  0  0
   -9.7687    1.6273   28.1591 N   0  0  0  0  0  0  0  0  0  0  0  0
  -13.9803   -3.7203   21.5120 C   0  0  0  0  0  0  0  0  0  0  0  0
  -14.5325   -2.4753   21.2216 C   0  0  0  0  0  0  0  0  0  0  0  0
  -15.2590   -2.2499   20.0226 C   0  0  0  0  0  0  0  0  0  0  0  0
  -15.4105   -3.2980   19.0955 C   0  0  0  0  0  0  0  0  0  0  0  0
  -16.4187   -3.4198   17.6885 S   0  0  0  0  0  0  0  0  0  0  0  0
  -15.6907   -4.9334   17.3148 C   0  0  0  0  0  0  0  0  0  0  0  0
  -14.8596   -5.4061   18.2151 N   0  0  0  0  0  0  0  0  0  0  0  0
  -14.7472   -4.5093   19.2700 C   0  0  0  0  0  0  0  0  0  0  0  0
  -14.0832   -4.7172   20.5044 C   0  0  0  0  0  0  0  0  0  0  0  0
  -12.8480   -2.2721   23.2728 H   0  0  0  0  0  0  0  0  0  0  0  0
  -12.1911   -4.2222   25.4041 H   0  0  0  0  0  0  0  0  0  0  0  0
  -13.5193   -3.1345   25.7263 H   0  0  0  0  0  0  0  0  0  0  0  0
  -11.9120   -2.0795   26.9098 H   0  0  0  0  0  0  0  0  0  0  0  0
  -10.9554   -0.4388   25.2591 H   0  0  0  0  0  0  0  0  0  0  0  0
   -9.8441   -3.2394   26.5977 H   0  0  0  0  0  0  0  0  0  0  0  0
   -9.8437   -2.9070   24.8665 H   0  0  0  0  0  0  0  0  0  0  0  0
   -8.3025   -1.4740   25.7874 H   0  0  0  0  0  0  0  0  0  0  0  0
   -8.5365   -0.9982   27.9111 H   0  0  0  0  0  0  0  0  0  0  0  0
  -10.2956   -0.9119   27.8341 H   0  0  0  0  0  0  0  0  0  0  0  0
   -8.4074    1.2896   25.1631 H   0  0  0  0  0  0  0  0  0  0  0  0
   -8.6400    3.8896   26.1679 H   0  0  0  0  0  0  0  0  0  0  0  0
  -14.5251   -1.6837   21.9685 H   0  0  0  0  0  0  0  0  0  0  0  0
  -15.7734   -1.3038   19.8716 H   0  0  0  0  0  0  0  0  0  0  0  0
  -15.9275   -5.4699   16.4055 H   0  0  0  0  0  0  0  0  0  0  0  0
  -13.7316   -5.7269   20.7045 H   0  0  0  0  0  0  0  0  0  0  0  0
  1  2  2  0
  2  3  1  0
  3  4  1  0
  4  5  1  0
  5  6  1  0
  5  7  1  0
  7  8  1  0
  8  9  1  0
  9 10  1  0
 10 11  1  0
 11 12  2  0
 12 13  1  0
 13 14  1  0
  2 15  1  0
 15 16  2  0
 16 17  1  0
 17 18  2  0
 18 19  1  0
 19 20  1  0
 20 21  2  0
 21 22  1  0
 22 23  2  0
 14 10  2  0
 23 15  1  0
 22 18  1  0
  3 24  1  0
  4 25  1  0
  4 26  1  0
  5 27  1  0
  6 28  1  0
  7 29  1  0
  7 30  1  0
  8 31  1  0
  9 32  1  0
  9 33  1  0
 11 34  1  0
 12 35  1  0
 16 36  1  0
 17 37  1  0
 20 38  1  0
 23 39  1  0
M  END
>  <Energy>  (161) 
77.320091450201616

>  <compound_id>  (161) 
40958

>  <target_id>  (161) 
1

>  <reference_id>  (161) 
69

>  <inspiration_ids>  (161) 
[69, 59]

>  <energy_score>  (161) 
-70.59053872335812

>  <distance_score>  (161) 
12.43207995425453

>  <path>  (161) 
/opt/xchem-fragalysis-2/maxwin/BulkDock/SCRATCH/511021/C40958-P69/C40958-P69.minimised.mol

>  <scratch_subdir>  (161) 
/opt/xchem-fragalysis-2/maxwin/BulkDock/SCRATCH/511021/C40958-P69

>  <fragmenstein_runtime>  (161) 
17.65427327156067

>  <fragmenstein_outcome>  (161) 
too moved

>  <fragmenstein_mode>  (161) 
expansion

>  <fragmenstein_error>  (161) 


$$$$
C40958-P59
     RDKit          3D

 39 41  0  0  0  0  0  0  0  0999 V2000
  -10.4820   -3.0785   25.3395 O   0  0  0  0  0  0  0  0  0  0  0  0
  -11.4201   -2.3429   25.2759 C   0  0  0  0  0  0  0  0  0  0  0  0
  -12.0676   -1.5784   26.2786 N   0  0  0  0  0  0  0  0  0  0  0  0
  -11.7437   -1.3729   27.6688 C   0  0  0  0  0  0  0  0  0  0  0  0
  -10.2440   -1.1273   27.9105 C   0  0  0  0  0  0  0  0  0  0  0  0
  -10.1381   -0.0556   28.8534 O   0  0  0  0  0  0  0  0  0  0  0  0
   -9.4819   -2.3988   28.3776 C   0  0  0  0  0  0  0  0  0  0  0  0
   -8.2100   -1.9612   28.9587 N   0  0  0  0  0  0  0  0  0  0  0  0
   -7.6732   -2.7093   30.2320 C   0  0  0  0  0  0  0  0  0  0  0  0
   -6.8825   -1.9161   31.6213 C   0  0  0  0  0  0  0  0  0  0  0  0
   -5.5398   -2.2018   32.1889 C   0  0  0  0  0  0  0  0  0  0  0  0
   -5.3611   -1.3018   33.2008 C   0  0  0  0  0  0  0  0  0  0  0  0
   -6.4658   -0.5384   33.2944 O   0  0  0  0  0  0  0  0  0  0  0  0
   -7.3864   -0.8979   32.3375 N   0  0  0  0  0  0  0  0  0  0  0  0
  -12.0770   -2.2417   23.9422 C   0  0  0  0  0  0  0  0  0  0  0  0
  -13.4493   -2.4251   23.7991 C   0  0  0  0  0  0  0  0  0  0  0  0
  -14.0166   -2.6051   22.5414 C   0  0  0  0  0  0  0  0  0  0  0  0
  -13.1559   -2.6396   21.4487 C   0  0  0  0  0  0  0  0  0  0  0  0
  -13.5305   -3.0452   19.8622 S   0  0  0  0  0  0  0  0  0  0  0  0
  -11.9575   -2.5870   19.3767 C   0  0  0  0  0  0  0  0  0  0  0  0
  -11.1072   -2.4633   20.3527 N   0  0  0  0  0  0  0  0  0  0  0  0
  -11.7942   -2.3952   21.5427 C   0  0  0  0  0  0  0  0  0  0  0  0
  -11.2564   -2.1630   22.8146 C   0  0  0  0  0  0  0  0  0  0  0  0
  -12.7806   -1.0033   25.8454 H   0  0  0  0  0  0  0  0  0  0  0  0
  -12.3442   -0.5208   28.0060 H   0  0  0  0  0  0  0  0  0  0  0  0
  -12.0937   -2.2550   28.2148 H   0  0  0  0  0  0  0  0  0  0  0  0
   -9.7657   -0.7516   26.9973 H   0  0  0  0  0  0  0  0  0  0  0  0
   -9.3078   -0.2293   29.3300 H   0  0  0  0  0  0  0  0  0  0  0  0
  -10.0939   -3.0226   29.0255 H   0  0  0  0  0  0  0  0  0  0  0  0
   -9.2772   -3.0418   27.5146 H   0  0  0  0  0  0  0  0  0  0  0  0
   -7.5681   -2.1378   28.1883 H   0  0  0  0  0  0  0  0  0  0  0  0
   -6.8899   -3.3879   29.9032 H   0  0  0  0  0  0  0  0  0  0  0  0
   -8.5395   -3.2285   30.5425 H   0  0  0  0  0  0  0  0  0  0  0  0
   -4.8124   -2.9206   31.8506 H   0  0  0  0  0  0  0  0  0  0  0  0
   -4.5700   -1.0896   33.9038 H   0  0  0  0  0  0  0  0  0  0  0  0
  -14.0864   -2.5243   24.6759 H   0  0  0  0  0  0  0  0  0  0  0  0
  -15.0777   -2.8105   22.4341 H   0  0  0  0  0  0  0  0  0  0  0  0
  -11.6325   -2.4683   18.3538 H   0  0  0  0  0  0  0  0  0  0  0  0
  -10.1864   -2.0564   22.9527 H   0  0  0  0  0  0  0  0  0  0  0  0
  1  2  2  0
  2  3  1  0
  3  4  1  0
  4  5  1  0
  5  6  1  0
  5  7  1  0
  7  8  1  0
  8  9  1  0
  9 10  1  0
 10 11  1  0
 11 12  2  0
 12 13  1  0
 13 14  1  0
  2 15  1  0
 15 16  2  0
 16 17  1  0
 17 18  2  0
 18 19  1  0
 19 20  1  0
 20 21  2  0
 21 22  1  0
 22 23  2  0
 14 10  2  0
 23 15  1  0
 22 18  1  0
  3 24  1  0
  4 25  1  0
  4 26  1  0
  5 27  1  0
  6 28  1  0
  7 29  1  0
  7 30  1  0
  8 31  1  0
  9 32  1  0
  9 33  1  0
 11 34  1  0
 12 35  1  0
 16 36  1  0
 17 37  1  0
 20 38  1  0
 23 39  1  0
M  END
>  <Energy>  (162) 
112.24901548297402

>  <compound_id>  (162) 
40958

>  <target_id>  (162) 
1

>  <reference_id>  (162) 
59

>  <inspiration_ids>  (162) 
[69, 59]

>  <energy_score>  (162) 
-35.66161469058318

>  <distance_score>  (162) 
11.709534602162103

>  <path>  (162) 
/opt/xchem-fragalysis-2/maxwin/BulkDock/SCRATCH/511021/C40958-P59/C40958-P59.minimised.mol

>  <scratch_subdir>  (162) 
/opt/xchem-fragalysis-2/maxwin/BulkDock/SCRATCH/511021/C40958-P59

>  <fragmenstein_runtime>  (162) 
25.46850085258484

>  <fragmenstein_outcome>  (162) 
too moved

>  <fragmenstein_mode>  (162) 
expansion

>  <fragmenstein_error>  (162) 


$$$$
C11039-P69
     RDKit          3D

 49 52  0  0  0  0  0  0  0  0999 V2000
   -5.7375   -2.3669   24.5520 O   0  0  0  0  0  0  0  0  0  0  0  0
   -4.4892   -2.3653   24.3827 C   0  0  0  0  0  0  0  0  0  0  0  0
   -3.6341   -1.6535   25.9817 C   0  0  0  0  0  0  0  0  0  0  0  0
   -3.0225   -0.2310   26.9013 C   0  0  0  0  0  0  0  0  0  0  0  0
   -1.5895    0.0974   27.5867 C   0  0  0  0  0  0  0  0  0  0  0  0
   -0.5931   -0.1299   26.9583 O   0  0  0  0  0  0  0  0  0  0  0  0
   -1.7529    0.6108   28.9449 N   0  0  0  0  0  0  0  0  0  0  0  0
   -1.8187   -0.5423   29.9419 C   0  0  0  0  0  0  0  0  0  0  0  0
   -2.5997   -0.2369   31.2344 C   0  0  0  0  0  0  0  0  0  0  0  0
   -1.6957    0.4070   32.1737 N   0  0  0  0  0  0  0  0  0  0  0  0
   -0.9791   -0.4897   32.9844 C   0  0  0  0  0  0  0  0  0  0  0  0
   -0.2665   -0.0005   34.0813 C   0  0  0  0  0  0  0  0  0  0  0  0
    0.4016   -0.8833   34.9287 C   0  0  0  0  0  0  0  0  0  0  0  0
    0.3349   -2.2441   34.6750 C   0  0  0  0  0  0  0  0  0  0  0  0
   -0.3939   -2.6590   33.5773 C   0  0  0  0  0  0  0  0  0  0  0  0
   -1.0305   -1.8158   32.7327 N   0  0  0  0  0  0  0  0  0  0  0  0
   -0.8826    1.3976   31.4734 C   0  0  0  0  0  0  0  0  0  0  0  0
   -0.7141    1.1241   29.9455 C   0  0  0  0  0  0  0  0  0  0  0  0
   -3.6861   -2.9008   23.2650 N   0  0  0  0  0  0  0  0  0  0  0  0
   -4.1204   -3.7634   21.9451 C   0  0  0  0  0  0  0  0  0  0  0  0
   -3.7472   -5.0289   21.4676 N   0  0  0  0  0  0  0  0  0  0  0  0
   -3.8086   -5.3763   19.8361 C   0  0  0  0  0  0  0  0  0  0  0  0
   -3.4995   -6.5817   18.9164 C   0  0  0  0  0  0  0  0  0  0  0  0
   -4.3191   -6.8738   17.8772 C   0  0  0  0  0  0  0  0  0  0  0  0
   -5.2095   -5.9620   17.5535 C   0  0  0  0  0  0  0  0  0  0  0  0
   -4.6567   -4.7483   17.7707 C   0  0  0  0  0  0  0  0  0  0  0  0
   -4.3794   -4.3550   19.2397 C   0  0  0  0  0  0  0  0  0  0  0  0
   -5.4073   -4.5030   21.2023 S   0  0  0  0  0  0  0  0  0  0  0  0
   -4.4113   -2.0021   26.6932 H   0  0  0  0  0  0  0  0  0  0  0  0
   -2.9863   -2.3071   26.4923 H   0  0  0  0  0  0  0  0  0  0  0  0
   -3.4917   -0.5096   27.8328 H   0  0  0  0  0  0  0  0  0  0  0  0
   -3.4016    0.7006   26.4679 H   0  0  0  0  0  0  0  0  0  0  0  0
   -0.8594   -1.0351   30.1476 H   0  0  0  0  0  0  0  0  0  0  0  0
   -2.4359   -1.3009   29.4533 H   0  0  0  0  0  0  0  0  0  0  0  0
   -3.4085    0.4657   31.0166 H   0  0  0  0  0  0  0  0  0  0  0  0
   -3.0740   -1.1356   31.6473 H   0  0  0  0  0  0  0  0  0  0  0  0
   -0.2592    1.0620   34.2992 H   0  0  0  0  0  0  0  0  0  0  0  0
    0.9455   -0.5096   35.7908 H   0  0  0  0  0  0  0  0  0  0  0  0
    0.8197   -2.9652   35.3227 H   0  0  0  0  0  0  0  0  0  0  0  0
   -0.4984   -3.7151   33.3436 H   0  0  0  0  0  0  0  0  0  0  0  0
    0.1197    1.5125   31.9067 H   0  0  0  0  0  0  0  0  0  0  0  0
   -1.3493    2.3628   31.6150 H   0  0  0  0  0  0  0  0  0  0  0  0
   -0.4676    2.1069   29.5141 H   0  0  0  0  0  0  0  0  0  0  0  0
    0.2339    0.5843   29.7698 H   0  0  0  0  0  0  0  0  0  0  0  0
   -2.7239   -2.6528   23.4138 H   0  0  0  0  0  0  0  0  0  0  0  0
   -2.9327   -7.4548   19.2112 H   0  0  0  0  0  0  0  0  0  0  0  0
   -4.2812   -7.8592   17.4625 H   0  0  0  0  0  0  0  0  0  0  0  0
   -6.1283   -6.1048   17.0002 H   0  0  0  0  0  0  0  0  0  0  0  0
   -4.6577   -4.0634   16.9436 H   0  0  0  0  0  0  0  0  0  0  0  0
  1  2  2  0
  2  3  1  0
  3  4  1  0
  4  5  1  0
  5  6  2  0
  5  7  1  0
  7  8  1  0
  8  9  1  0
  9 10  1  0
 10 11  1  0
 11 12  2  0
 12 13  1  0
 13 14  2  0
 14 15  1  0
 15 16  2  0
 10 17  1  0
 17 18  1  0
  2 19  1  0
 19 20  1  0
 20 21  2  0
 21 22  1  0
 22 23  2  0
 23 24  1  0
 24 25  2  0
 25 26  1  0
 26 27  2  0
 27 28  1  0
 18  7  1  0
 28 20  1  0
 16 11  1  0
 27 22  1  0
  3 29  1  0
  3 30  1  0
  4 31  1  0
  4 32  1  0
  8 33  1  0
  8 34  1  0
  9 35  1  0
  9 36  1  0
 12 37  1  0
 13 38  1  0
 14 39  1  0
 15 40  1  0
 17 41  1  0
 17 42  1  0
 18 43  1  0
 18 44  1  0
 19 45  1  0
 23 46  1  0
 24 47  1  0
 25 48  1  0
 26 49  1  0
M  END
>  <Energy>  (163) 
508.24378800158257

>  <compound_id>  (163) 
11039

>  <target_id>  (163) 
1

>  <reference_id>  (163) 
69

>  <inspiration_ids>  (163) 
[69, 59]

>  <energy_score>  (163) 
411.82484673526403

>  <distance_score>  (163) 
10.740788099793852

>  <path>  (163) 
/opt/xchem-fragalysis-2/maxwin/BulkDock/SCRATCH/511021/C11039-P69/C11039-P69.minimised.mol

>  <scratch_subdir>  (163) 
/opt/xchem-fragalysis-2/maxwin/BulkDock/SCRATCH/511021/C11039-P69

>  <fragmenstein_runtime>  (163) 
39.85536217689514

>  <fragmenstein_outcome>  (163) 
too moved

>  <fragmenstein_mode>  (163) 
expansion

>  <fragmenstein_error>  (163) 


$$$$
C11039-P59
     RDKit          3D

 49 52  0  0  0  0  0  0  0  0999 V2000
   -3.7513   -2.5818   19.0562 O   0  0  0  0  0  0  0  0  0  0  0  0
   -4.4717   -3.5460   18.9346 C   0  0  0  0  0  0  0  0  0  0  0  0
   -5.1949   -4.3231   20.6718 C   0  0  0  0  0  0  0  0  0  0  0  0
   -6.5559   -3.4004   21.9779 C   0  0  0  0  0  0  0  0  0  0  0  0
   -7.2571   -3.7255   23.9885 C   0  0  0  0  0  0  0  0  0  0  0  0
   -7.6586   -4.8084   24.0728 O   0  0  0  0  0  0  0  0  0  0  0  0
   -7.2705   -2.9712   25.5698 N   0  0  0  0  0  0  0  0  0  0  0  0
   -8.5461   -2.0851   26.2264 C   0  0  0  0  0  0  0  0  0  0  0  0
   -8.7166   -1.8712   28.1606 C   0  0  0  0  0  0  0  0  0  0  0  0
   -7.7712   -2.8309   29.3367 N   0  0  0  0  0  0  0  0  0  0  0  0
   -7.0976   -2.2682   30.9164 C   0  0  0  0  0  0  0  0  0  0  0  0
   -5.7332   -2.6446   31.4196 C   0  0  0  0  0  0  0  0  0  0  0  0
   -5.0270   -2.1566   32.5678 C   0  0  0  0  0  0  0  0  0  0  0  0
   -5.6536   -1.2479   33.3716 C   0  0  0  0  0  0  0  0  0  0  0  0
   -6.8670   -0.8241   32.9083 C   0  0  0  0  0  0  0  0  0  0  0  0
   -7.4311   -1.2032   31.7059 N   0  0  0  0  0  0  0  0  0  0  0  0
   -6.7589   -3.4565   28.2457 C   0  0  0  0  0  0  0  0  0  0  0  0
   -7.5965   -3.5196   26.9714 C   0  0  0  0  0  0  0  0  0  0  0  0
   -5.0549   -4.1121   17.2651 N   0  0  0  0  0  0  0  0  0  0  0  0
   -4.8801   -3.3546   15.5832 C   0  0  0  0  0  0  0  0  0  0  0  0
   -5.6688   -3.0859   14.1285 N   0  0  0  0  0  0  0  0  0  0  0  0
   -5.9670   -1.2781   13.6185 C   0  0  0  0  0  0  0  0  0  0  0  0
   -5.8151   -0.6641   11.8938 C   0  0  0  0  0  0  0  0  0  0  0  0
   -6.5981   -0.1824   10.9072 C   0  0  0  0  0  0  0  0  0  0  0  0
   -6.7463    0.8874   11.5722 C   0  0  0  0  0  0  0  0  0  0  0  0
   -6.6750    0.8620   13.1580 C   0  0  0  0  0  0  0  0  0  0  0  0
   -5.9815   -0.1563   14.3616 C   0  0  0  0  0  0  0  0  0  0  0  0
   -6.4650   -1.7005   14.8237 S   0  0  0  0  0  0  0  0  0  0  0  0
   -5.8840   -5.0712   20.3403 H   0  0  0  0  0  0  0  0  0  0  0  0
   -4.4029   -4.7400   21.2746 H   0  0  0  0  0  0  0  0  0  0  0  0
   -5.8227   -2.7145   22.2098 H   0  0  0  0  0  0  0  0  0  0  0  0
   -7.3055   -2.9642   21.3164 H   0  0  0  0  0  0  0  0  0  0  0  0
   -9.4965   -2.4809   25.8345 H   0  0  0  0  0  0  0  0  0  0  0  0
   -8.4176   -1.0683   25.8366 H   0  0  0  0  0  0  0  0  0  0  0  0
   -8.7020   -0.8190   28.3815 H   0  0  0  0  0  0  0  0  0  0  0  0
   -9.7397   -2.2220   28.3496 H   0  0  0  0  0  0  0  0  0  0  0  0
   -5.1260   -3.2542   30.7950 H   0  0  0  0  0  0  0  0  0  0  0  0
   -4.0274   -2.5123   32.7935 H   0  0  0  0  0  0  0  0  0  0  0  0
   -5.2223   -0.8743   34.2891 H   0  0  0  0  0  0  0  0  0  0  0  0
   -7.4569   -0.1018   33.4642 H   0  0  0  0  0  0  0  0  0  0  0  0
   -6.3127   -4.4082   28.4548 H   0  0  0  0  0  0  0  0  0  0  0  0
   -5.7966   -3.0013   28.0441 H   0  0  0  0  0  0  0  0  0  0  0  0
   -8.6533   -3.8581   27.1379 H   0  0  0  0  0  0  0  0  0  0  0  0
   -7.4218   -4.5908   26.7562 H   0  0  0  0  0  0  0  0  0  0  0  0
   -5.5539   -4.9591   17.3713 H   0  0  0  0  0  0  0  0  0  0  0  0
   -4.7583   -0.4874   11.5229 H   0  0  0  0  0  0  0  0  0  0  0  0
   -6.5300   -0.1812    9.8290 H   0  0  0  0  0  0  0  0  0  0  0  0
   -7.5176    1.4511   10.9946 H   0  0  0  0  0  0  0  0  0  0  0  0
   -7.2404   -0.0748   12.8783 H   0  0  0  0  0  0  0  0  0  0  0  0
  1  2  2  0
  2  3  1  0
  3  4  1  0
  4  5  1  0
  5  6  2  0
  5  7  1  0
  7  8  1  0
  8  9  1  0
  9 10  1  0
 10 11  1  0
 11 12  2  0
 12 13  1  0
 13 14  2  0
 14 15  1  0
 15 16  2  0
 10 17  1  0
 17 18  1  0
  2 19  1  0
 19 20  1  0
 20 21  2  0
 21 22  1  0
 22 23  2  0
 23 24  1  0
 24 25  2  0
 25 26  1  0
 26 27  2  0
 27 28  1  0
 18  7  1  0
 28 20  1  0
 16 11  1  0
 27 22  1  0
  3 29  1  0
  3 30  1  0
  4 31  1  0
  4 32  1  0
  8 33  1  0
  8 34  1  0
  9 35  1  0
  9 36  1  0
 12 37  1  0
 13 38  1  0
 14 39  1  0
 15 40  1  0
 17 41  1  0
 17 42  1  0
 18 43  1  0
 18 44  1  0
 19 45  1  0
 23 46  1  0
 24 47  1  0
 25 48  1  0
 26 49  1  0
M  END
>  <Energy>  (164) 
1621.7755919217911

>  <compound_id>  (164) 
11039

>  <target_id>  (164) 
1

>  <reference_id>  (164) 
59

>  <inspiration_ids>  (164) 
[69, 59]

>  <energy_score>  (164) 
1525.3566506554403

>  <distance_score>  (164) 
7.732687245953593

>  <path>  (164) 
/opt/xchem-fragalysis-2/maxwin/BulkDock/SCRATCH/511021/C11039-P59/C11039-P59.minimised.mol

>  <scratch_subdir>  (164) 
/opt/xchem-fragalysis-2/maxwin/BulkDock/SCRATCH/511021/C11039-P59

>  <fragmenstein_runtime>  (164) 
26.427490234375

>  <fragmenstein_outcome>  (164) 
too moved

>  <fragmenstein_mode>  (164) 
expansion

>  <fragmenstein_error>  (164) 


$$$$
C11041-P69
     RDKit          3D

 44 47  0  0  0  0  0  0  0  0999 V2000
    0.0233    1.9601   16.1082 O   0  0  0  0  0  0  0  0  0  0  0  0
    0.6741    0.9549   15.9917 C   0  0  0  0  0  0  0  0  0  0  0  0
    1.6627    0.4800   17.1921 C   0  0  0  0  0  0  0  0  0  0  0  0
    1.1911    0.5854   18.6486 N   0  0  0  0  0  0  0  0  0  0  0  0
    1.9965   -0.3581   19.4941 C   0  0  0  0  0  0  0  0  0  0  0  0
    1.6788   -0.3765   21.0096 C   0  0  0  0  0  0  0  0  0  0  0  0
    1.6967    0.9664   21.6321 N   0  0  0  0  0  0  0  0  0  0  0  0
    1.2011    0.9392   22.9656 C   0  0  0  0  0  0  0  0  0  0  0  0
    1.1904    2.1075   23.7331 C   0  0  0  0  0  0  0  0  0  0  0  0
    0.6698    2.0930   25.0286 C   0  0  0  0  0  0  0  0  0  0  0  0
    0.1748    0.9079   25.5479 C   0  0  0  0  0  0  0  0  0  0  0  0
    0.2441   -0.2169   24.7514 C   0  0  0  0  0  0  0  0  0  0  0  0
    0.7537   -0.2218   23.4980 N   0  0  0  0  0  0  0  0  0  0  0  0
    1.1064    2.0421   20.8011 C   0  0  0  0  0  0  0  0  0  0  0  0
    1.4181    1.9200   19.2629 C   0  0  0  0  0  0  0  0  0  0  0  0
    0.7984    0.0057   14.8470 N   0  0  0  0  0  0  0  0  0  0  0  0
    0.1268   -0.0437   13.6147 C   0  0  0  0  0  0  0  0  0  0  0  0
    0.4758   -0.9515   12.7260 N   0  0  0  0  0  0  0  0  0  0  0  0
   -0.3462   -0.9232   11.6267 C   0  0  0  0  0  0  0  0  0  0  0  0
   -0.0580   -1.1382   10.2068 C   0  0  0  0  0  0  0  0  0  0  0  0
   -1.5512   -0.9647    8.9320 C   0  0  0  0  0  0  0  0  0  0  0  0
   -2.7249   -0.4736    8.6470 C   0  0  0  0  0  0  0  0  0  0  0  0
   -2.6659   -0.0722    9.8684 C   0  0  0  0  0  0  0  0  0  0  0  0
   -1.6809   -0.2236   11.6503 C   0  0  0  0  0  0  0  0  0  0  0  0
   -1.2537    0.9411   13.1905 S   0  0  0  0  0  0  0  0  0  0  0  0
    1.8630   -0.5827   17.0104 H   0  0  0  0  0  0  0  0  0  0  0  0
    2.6107    1.0157   17.0622 H   0  0  0  0  0  0  0  0  0  0  0  0
    3.0625   -0.1157   19.3759 H   0  0  0  0  0  0  0  0  0  0  0  0
    1.8723   -1.3770   19.1110 H   0  0  0  0  0  0  0  0  0  0  0  0
    2.4341   -1.0041   21.5007 H   0  0  0  0  0  0  0  0  0  0  0  0
    0.7157   -0.8626   21.1636 H   0  0  0  0  0  0  0  0  0  0  0  0
    1.5949    3.0329   23.3398 H   0  0  0  0  0  0  0  0  0  0  0  0
    0.6519    3.0035   25.6201 H   0  0  0  0  0  0  0  0  0  0  0  0
   -0.2523    0.8573   26.5430 H   0  0  0  0  0  0  0  0  0  0  0  0
   -0.1236   -1.1763   25.1062 H   0  0  0  0  0  0  0  0  0  0  0  0
    0.0249    2.0886   20.9484 H   0  0  0  0  0  0  0  0  0  0  0  0
    1.5096    3.0112   21.1193 H   0  0  0  0  0  0  0  0  0  0  0  0
    2.4690    2.2078   19.1194 H   0  0  0  0  0  0  0  0  0  0  0  0
    0.8181    2.6671   18.7322 H   0  0  0  0  0  0  0  0  0  0  0  0
    1.4981   -0.6875   15.0644 H   0  0  0  0  0  0  0  0  0  0  0  0
    0.8884   -1.6065    9.9073 H   0  0  0  0  0  0  0  0  0  0  0  0
   -1.5298   -1.5401    7.9956 H   0  0  0  0  0  0  0  0  0  0  0  0
   -3.4415   -0.5360    7.8715 H   0  0  0  0  0  0  0  0  0  0  0  0
   -3.8391    0.0648    9.9722 H   0  0  0  0  0  0  0  0  0  0  0  0
  1  2  2  0
  2  3  1  0
  3  4  1  0
  4  5  1  0
  5  6  1  0
  6  7  1  0
  7  8  1  0
  8  9  2  0
  9 10  1  0
 10 11  2  0
 11 12  1  0
 12 13  2  0
  7 14  1  0
 14 15  1  0
  2 16  1  0
 16 17  1  0
 17 18  2  0
 18 19  1  0
 19 20  2  0
 20 21  1  0
 21 22  2  0
 22 23  1  0
 23 24  2  0
 24 25  1  0
 15  4  1  0
 25 17  1  0
 13  8  1  0
 24 19  1  0
  3 26  1  0
  3 27  1  0
  5 28  1  0
  5 29  1  0
  6 30  1  0
  6 31  1  0
  9 32  1  0
 10 33  1  0
 11 34  1  0
 12 35  1  0
 14 36  1  0
 14 37  1  0
 15 38  1  0
 15 39  1  0
 16 40  1  0
 20 41  1  0
 21 42  1  0
 22 43  1  0
 23 44  1  0
M  END
>  <Energy>  (165) 
419.84889884347899

>  <compound_id>  (165) 
11041

>  <target_id>  (165) 
1

>  <reference_id>  (165) 
69

>  <inspiration_ids>  (165) 
[69, 59]

>  <energy_score>  (165) 
247.4407107923132

>  <distance_score>  (165) 
12.007278505541343

>  <path>  (165) 
/opt/xchem-fragalysis-2/maxwin/BulkDock/SCRATCH/511021/C11041-P69/C11041-P69.minimised.mol

>  <scratch_subdir>  (165) 
/opt/xchem-fragalysis-2/maxwin/BulkDock/SCRATCH/511021/C11041-P69

>  <fragmenstein_runtime>  (165) 
18.475714445114136

>  <fragmenstein_outcome>  (165) 
too moved

>  <fragmenstein_mode>  (165) 
expansion

>  <fragmenstein_error>  (165) 


$$$$
C11041-P59
     RDKit          3D

 44 47  0  0  0  0  0  0  0  0999 V2000
   -8.1633   -2.9307   20.7628 O   0  0  0  0  0  0  0  0  0  0  0  0
   -7.0694   -3.2400   20.4951 C   0  0  0  0  0  0  0  0  0  0  0  0
   -6.0557   -3.0706   21.9431 C   0  0  0  0  0  0  0  0  0  0  0  0
   -6.3725   -2.7689   23.8808 N   0  0  0  0  0  0  0  0  0  0  0  0
   -7.4966   -2.0631   25.0722 C   0  0  0  0  0  0  0  0  0  0  0  0
   -7.1654   -2.6033   26.9478 C   0  0  0  0  0  0  0  0  0  0  0  0
   -5.1076   -2.7953   27.1569 N   0  0  0  0  0  0  0  0  0  0  0  0
   -3.6233   -2.0084   27.8913 C   0  0  0  0  0  0  0  0  0  0  0  0
   -2.8291   -0.8837   27.3846 C   0  0  0  0  0  0  0  0  0  0  0  0
   -1.6345   -0.4183   27.9853 C   0  0  0  0  0  0  0  0  0  0  0  0
   -1.1172   -1.0400   29.0951 C   0  0  0  0  0  0  0  0  0  0  0  0
   -1.8144   -2.1154   29.5656 C   0  0  0  0  0  0  0  0  0  0  0  0
   -2.9681   -2.5747   29.0156 N   0  0  0  0  0  0  0  0  0  0  0  0
   -4.2346   -2.4901   25.9223 C   0  0  0  0  0  0  0  0  0  0  0  0
   -4.5593   -2.9189   24.6100 C   0  0  0  0  0  0  0  0  0  0  0  0
   -6.5952   -3.9863   18.8760 N   0  0  0  0  0  0  0  0  0  0  0  0
   -7.8579   -4.7225   17.1707 C   0  0  0  0  0  0  0  0  0  0  0  0
   -7.9293   -5.7523   16.1032 N   0  0  0  0  0  0  0  0  0  0  0  0
   -9.1063   -5.3383   15.1727 C   0  0  0  0  0  0  0  0  0  0  0  0
   -9.0807   -4.8178   13.8590 C   0  0  0  0  0  0  0  0  0  0  0  0
  -10.2167   -4.2462   13.2681 C   0  0  0  0  0  0  0  0  0  0  0  0
  -11.3457   -3.9787   14.0206 C   0  0  0  0  0  0  0  0  0  0  0  0
  -11.4171   -4.4189   15.3110 C   0  0  0  0  0  0  0  0  0  0  0  0
  -10.2736   -5.0277   15.8108 C   0  0  0  0  0  0  0  0  0  0  0  0
  -10.0194   -5.5454   17.3506 S   0  0  0  0  0  0  0  0  0  0  0  0
   -5.0401   -3.5321   21.7734 H   0  0  0  0  0  0  0  0  0  0  0  0
   -6.4696   -4.0767   22.0687 H   0  0  0  0  0  0  0  0  0  0  0  0
   -8.4904   -2.4403   24.8127 H   0  0  0  0  0  0  0  0  0  0  0  0
   -7.4223   -0.9806   25.0508 H   0  0  0  0  0  0  0  0  0  0  0  0
   -7.8155   -3.4359   27.3106 H   0  0  0  0  0  0  0  0  0  0  0  0
   -7.6314   -1.8100   27.6000 H   0  0  0  0  0  0  0  0  0  0  0  0
   -3.0387   -0.2498   26.5309 H   0  0  0  0  0  0  0  0  0  0  0  0
   -1.1209    0.4402   27.5579 H   0  0  0  0  0  0  0  0  0  0  0  0
   -0.2021   -0.7054   29.5657 H   0  0  0  0  0  0  0  0  0  0  0  0
   -1.4690   -2.6755   30.4282 H   0  0  0  0  0  0  0  0  0  0  0  0
   -3.9681   -1.4929   25.6478 H   0  0  0  0  0  0  0  0  0  0  0  0
   -3.1878   -2.8361   25.9314 H   0  0  0  0  0  0  0  0  0  0  0  0
   -3.7722   -2.4317   23.9908 H   0  0  0  0  0  0  0  0  0  0  0  0
   -3.8667   -3.7500   24.3590 H   0  0  0  0  0  0  0  0  0  0  0  0
   -5.5731   -4.2680   18.9030 H   0  0  0  0  0  0  0  0  0  0  0  0
   -8.1539   -4.8242   13.3133 H   0  0  0  0  0  0  0  0  0  0  0  0
  -10.1811   -3.9576   12.2257 H   0  0  0  0  0  0  0  0  0  0  0  0
  -12.1716   -3.3841   13.6485 H   0  0  0  0  0  0  0  0  0  0  0  0
  -12.2791   -4.2180   15.9378 H   0  0  0  0  0  0  0  0  0  0  0  0
  1  2  2  0
  2  3  1  0
  3  4  1  0
  4  5  1  0
  5  6  1  0
  6  7  1  0
  7  8  1  0
  8  9  2  0
  9 10  1  0
 10 11  2  0
 11 12  1  0
 12 13  2  0
  7 14  1  0
 14 15  1  0
  2 16  1  0
 16 17  1  0
 17 18  2  0
 18 19  1  0
 19 20  2  0
 20 21  1  0
 21 22  2  0
 22 23  1  0
 23 24  2  0
 24 25  1  0
 15  4  1  0
 25 17  1  0
 13  8  1  0
 24 19  1  0
  3 26  1  0
  3 27  1  0
  5 28  1  0
  5 29  1  0
  6 30  1  0
  6 31  1  0
  9 32  1  0
 10 33  1  0
 11 34  1  0
 12 35  1  0
 14 36  1  0
 14 37  1  0
 15 38  1  0
 15 39  1  0
 16 40  1  0
 20 41  1  0
 21 42  1  0
 22 43  1  0
 23 44  1  0
M  END
>  <Energy>  (166) 
1282.6701005516134

>  <compound_id>  (166) 
11041

>  <target_id>  (166) 
1

>  <reference_id>  (166) 
59

>  <inspiration_ids>  (166) 
[69, 59]

>  <energy_score>  (166) 
1110.2619125004342

>  <distance_score>  (166) 
9.786311162098585

>  <path>  (166) 
/opt/xchem-fragalysis-2/maxwin/BulkDock/SCRATCH/511021/C11041-P59/C11041-P59.minimised.mol

>  <scratch_subdir>  (166) 
/opt/xchem-fragalysis-2/maxwin/BulkDock/SCRATCH/511021/C11041-P59

>  <fragmenstein_runtime>  (166) 
29.45064401626587

>  <fragmenstein_outcome>  (166) 
too moved

>  <fragmenstein_mode>  (166) 
expansion

>  <fragmenstein_error>  (166) 


$$$$
C11043-P69
     RDKit          3D

 52 55  0  0  0  0  0  0  0  0999 V2000
   -8.1982    0.0127   18.2078 O   0  0  0  0  0  0  0  0  0  0  0  0
   -7.8852   -1.1622   18.2049 C   0  0  0  0  0  0  0  0  0  0  0  0
   -8.1002   -2.0303   20.4318 C   0  0  0  0  0  0  0  0  0  0  0  0
   -8.4091   -1.9230   22.8466 C   0  0  0  0  0  0  0  0  0  0  0  0
   -8.0596   -1.4712   25.1727 C   0  0  0  0  0  0  0  0  0  0  0  0
   -7.6716   -1.5079   27.5152 C   0  0  0  0  0  0  0  0  0  0  0  0
   -7.4857   -2.6576   27.8421 O   0  0  0  0  0  0  0  0  0  0  0  0
   -7.2925   -0.2463   29.2318 N   0  0  0  0  0  0  0  0  0  0  0  0
   -5.3689    0.8946   29.9984 C   0  0  0  0  0  0  0  0  0  0  0  0
   -3.7200    0.0973   30.7468 C   0  0  0  0  0  0  0  0  0  0  0  0
   -4.1133   -1.0207   31.6964 N   0  0  0  0  0  0  0  0  0  0  0  0
   -3.0232   -1.2902   32.5196 C   0  0  0  0  0  0  0  0  0  0  0  0
   -1.8855   -1.8567   31.9294 C   0  0  0  0  0  0  0  0  0  0  0  0
   -0.7202   -2.0038   32.6667 C   0  0  0  0  0  0  0  0  0  0  0  0
   -0.7223   -1.5908   33.9867 C   0  0  0  0  0  0  0  0  0  0  0  0
   -1.8943   -1.0583   34.5043 C   0  0  0  0  0  0  0  0  0  0  0  0
   -3.0385   -0.8895   33.8015 N   0  0  0  0  0  0  0  0  0  0  0  0
   -5.5027   -0.9556   32.2846 C   0  0  0  0  0  0  0  0  0  0  0  0
   -6.9053   -0.6978   31.1310 C   0  0  0  0  0  0  0  0  0  0  0  0
   -7.0540   -1.7997   16.3543 N   0  0  0  0  0  0  0  0  0  0  0  0
   -6.5699   -0.9052   14.8457 C   0  0  0  0  0  0  0  0  0  0  0  0
   -6.2558   -1.0595   13.4928 N   0  0  0  0  0  0  0  0  0  0  0  0
   -7.4972   -0.7389   12.2504 C   0  0  0  0  0  0  0  0  0  0  0  0
   -8.3797   -0.3596   10.9036 C   0  0  0  0  0  0  0  0  0  0  0  0
   -8.3029    0.0408    9.5324 C   0  0  0  0  0  0  0  0  0  0  0  0
   -7.0875    0.0118    8.9979 C   0  0  0  0  0  0  0  0  0  0  0  0
   -6.1667   -0.2663    9.9610 C   0  0  0  0  0  0  0  0  0  0  0  0
   -6.3759   -0.3914   11.6684 C   0  0  0  0  0  0  0  0  0  0  0  0
   -6.6907    0.8779   13.4074 S   0  0  0  0  0  0  0  0  0  0  0  0
   -7.3014   -2.6677   20.6866 H   0  0  0  0  0  0  0  0  0  0  0  0
   -8.9572   -2.7037   20.2351 H   0  0  0  0  0  0  0  0  0  0  0  0
   -8.8881   -0.9162   23.0196 H   0  0  0  0  0  0  0  0  0  0  0  0
   -9.3519   -2.4844   23.0012 H   0  0  0  0  0  0  0  0  0  0  0  0
   -8.9869   -0.9985   25.2727 H   0  0  0  0  0  0  0  0  0  0  0  0
   -7.3126   -0.7071   25.0390 H   0  0  0  0  0  0  0  0  0  0  0  0
   -4.5291    1.5640   29.5671 H   0  0  0  0  0  0  0  0  0  0  0  0
   -5.1881    1.0577   31.3547 H   0  0  0  0  0  0  0  0  0  0  0  0
   -3.2080    0.9065   31.2880 H   0  0  0  0  0  0  0  0  0  0  0  0
   -3.0482   -0.2066   29.9258 H   0  0  0  0  0  0  0  0  0  0  0  0
   -1.9118   -2.1655   30.8880 H   0  0  0  0  0  0  0  0  0  0  0  0
    0.1670   -2.4349   32.2156 H   0  0  0  0  0  0  0  0  0  0  0  0
    0.1585   -1.6948   34.6098 H   0  0  0  0  0  0  0  0  0  0  0  0
   -1.9445   -0.7403   35.5419 H   0  0  0  0  0  0  0  0  0  0  0  0
   -5.7292   -1.8944   32.8062 H   0  0  0  0  0  0  0  0  0  0  0  0
   -5.5760   -0.1443   33.0218 H   0  0  0  0  0  0  0  0  0  0  0  0
   -7.5815   -0.0444   31.6873 H   0  0  0  0  0  0  0  0  0  0  0  0
   -7.1650   -1.7647   31.1595 H   0  0  0  0  0  0  0  0  0  0  0  0
   -6.9054   -2.7512   16.3879 H   0  0  0  0  0  0  0  0  0  0  0  0
   -9.4268   -0.7099   10.9754 H   0  0  0  0  0  0  0  0  0  0  0  0
   -9.1987    0.1659    8.9337 H   0  0  0  0  0  0  0  0  0  0  0  0
   -6.8618    0.1486    7.9531 H   0  0  0  0  0  0  0  0  0  0  0  0
   -5.1065   -0.3462    9.6658 H   0  0  0  0  0  0  0  0  0  0  0  0
  1  2  2  0
  2  3  1  0
  3  4  1  0
  4  5  1  0
  5  6  1  0
  6  7  2  0
  6  8  1  0
  8  9  1  0
  9 10  1  0
 10 11  1  0
 11 12  1  0
 12 13  2  0
 13 14  1  0
 14 15  2  0
 15 16  1  0
 16 17  2  0
 11 18  1  0
 18 19  1  0
  2 20  1  0
 20 21  1  0
 21 22  2  0
 22 23  1  0
 23 24  2  0
 24 25  1  0
 25 26  2  0
 26 27  1  0
 27 28  2  0
 28 29  1  0
 19  8  1  0
 29 21  1  0
 17 12  1  0
 28 23  1  0
  3 30  1  0
  3 31  1  0
  4 32  1  0
  4 33  1  0
  5 34  1  0
  5 35  1  0
  9 36  1  0
  9 37  1  0
 10 38  1  0
 10 39  1  0
 13 40  1  0
 14 41  1  0
 15 42  1  0
 16 43  1  0
 18 44  1  0
 18 45  1  0
 19 46  1  0
 19 47  1  0
 20 48  1  0
 24 49  1  0
 25 50  1  0
 26 51  1  0
 27 52  1  0
M  END
>  <Energy>  (167) 
3093.9419588054484

>  <compound_id>  (167) 
11043

>  <target_id>  (167) 
1

>  <reference_id>  (167) 
69

>  <inspiration_ids>  (167) 
[69, 59]

>  <energy_score>  (167) 
2969.887690672989

>  <distance_score>  (167) 
5.193863947562335

>  <path>  (167) 
/opt/xchem-fragalysis-2/maxwin/BulkDock/SCRATCH/511021/C11043-P69/C11043-P69.minimised.mol

>  <scratch_subdir>  (167) 
/opt/xchem-fragalysis-2/maxwin/BulkDock/SCRATCH/511021/C11043-P69

>  <fragmenstein_runtime>  (167) 
28.73660182952881

>  <fragmenstein_outcome>  (167) 
too moved

>  <fragmenstein_mode>  (167) 
expansion

>  <fragmenstein_error>  (167) 


$$$$
C11043-P59
     RDKit          3D

 52 55  0  0  0  0  0  0  0  0999 V2000
   -7.4307    0.7024   17.6581 O   0  0  0  0  0  0  0  0  0  0  0  0
   -7.7904   -0.4463   17.3340 C   0  0  0  0  0  0  0  0  0  0  0  0
   -8.6339   -1.4344   19.0524 C   0  0  0  0  0  0  0  0  0  0  0  0
   -7.9634   -2.3559   20.9544 C   0  0  0  0  0  0  0  0  0  0  0  0
   -8.4930   -2.1334   23.0823 C   0  0  0  0  0  0  0  0  0  0  0  0
   -7.9399   -1.3998   24.9706 C   0  0  0  0  0  0  0  0  0  0  0  0
   -7.2777   -0.4459   24.8490 O   0  0  0  0  0  0  0  0  0  0  0  0
   -8.2777   -1.7081   26.7220 N   0  0  0  0  0  0  0  0  0  0  0  0
   -9.7105   -1.1143   27.8442 C   0  0  0  0  0  0  0  0  0  0  0  0
   -9.3225   -2.6593   29.0702 C   0  0  0  0  0  0  0  0  0  0  0  0
   -7.8835   -2.6410   29.9072 N   0  0  0  0  0  0  0  0  0  0  0  0
   -7.1252   -2.1104   31.4132 C   0  0  0  0  0  0  0  0  0  0  0  0
   -5.7234   -2.4852   31.7120 C   0  0  0  0  0  0  0  0  0  0  0  0
   -4.9291   -1.9574   32.7566 C   0  0  0  0  0  0  0  0  0  0  0  0
   -5.4949   -1.0333   33.5935 C   0  0  0  0  0  0  0  0  0  0  0  0
   -6.7928   -0.6707   33.3140 C   0  0  0  0  0  0  0  0  0  0  0  0
   -7.5351   -1.1214   32.2547 N   0  0  0  0  0  0  0  0  0  0  0  0
   -7.9773   -1.3154   29.3398 C   0  0  0  0  0  0  0  0  0  0  0  0
   -7.8465   -1.1179   27.8422 C   0  0  0  0  0  0  0  0  0  0  0  0
   -7.4086   -1.2188   15.5237 N   0  0  0  0  0  0  0  0  0  0  0  0
   -6.3628   -0.5466   14.0132 C   0  0  0  0  0  0  0  0  0  0  0  0
   -7.3699   -0.5656   12.6604 N   0  0  0  0  0  0  0  0  0  0  0  0
   -7.7498   -0.0999   10.9503 C   0  0  0  0  0  0  0  0  0  0  0  0
   -8.8863    0.1357   10.0744 C   0  0  0  0  0  0  0  0  0  0  0  0
   -8.6701    0.2557    8.6884 C   0  0  0  0  0  0  0  0  0  0  0  0
   -7.3909    0.1124    8.1653 C   0  0  0  0  0  0  0  0  0  0  0  0
   -6.3112   -0.1078    9.0203 C   0  0  0  0  0  0  0  0  0  0  0  0
   -6.5894   -0.1356   10.4097 C   0  0  0  0  0  0  0  0  0  0  0  0
   -5.9021   -0.2718   11.9129 S   0  0  0  0  0  0  0  0  0  0  0  0
   -9.6357   -1.8277   18.7670 H   0  0  0  0  0  0  0  0  0  0  0  0
   -8.9336   -0.4727   19.3067 H   0  0  0  0  0  0  0  0  0  0  0  0
   -6.9343   -2.5726   21.1532 H   0  0  0  0  0  0  0  0  0  0  0  0
   -7.8718   -3.3887   20.6878 H   0  0  0  0  0  0  0  0  0  0  0  0
   -7.8209   -2.8721   23.5677 H   0  0  0  0  0  0  0  0  0  0  0  0
   -9.5582   -2.3793   23.1959 H   0  0  0  0  0  0  0  0  0  0  0  0
  -10.7749   -1.1745   27.4932 H   0  0  0  0  0  0  0  0  0  0  0  0
   -9.7730   -0.0723   28.2455 H   0  0  0  0  0  0  0  0  0  0  0  0
   -8.9223   -3.4542   28.4038 H   0  0  0  0  0  0  0  0  0  0  0  0
  -10.2181   -3.2311   29.3620 H   0  0  0  0  0  0  0  0  0  0  0  0
   -5.1680   -3.1028   31.0227 H   0  0  0  0  0  0  0  0  0  0  0  0
   -3.9003   -2.2782   32.8852 H   0  0  0  0  0  0  0  0  0  0  0  0
   -4.9593   -0.6119   34.4343 H   0  0  0  0  0  0  0  0  0  0  0  0
   -7.3140    0.0463   33.9440 H   0  0  0  0  0  0  0  0  0  0  0  0
   -7.3889   -0.7701   30.0688 H   0  0  0  0  0  0  0  0  0  0  0  0
   -8.8543   -0.6328   29.5469 H   0  0  0  0  0  0  0  0  0  0  0  0
   -7.3619   -0.2682   27.6312 H   0  0  0  0  0  0  0  0  0  0  0  0
   -8.3185   -0.1270   27.5194 H   0  0  0  0  0  0  0  0  0  0  0  0
   -7.8493   -2.0972   15.4400 H   0  0  0  0  0  0  0  0  0  0  0  0
   -9.9159    0.1264   10.4091 H   0  0  0  0  0  0  0  0  0  0  0  0
   -9.5185    0.3951    8.0225 H   0  0  0  0  0  0  0  0  0  0  0  0
   -7.2354    0.1525    7.0904 H   0  0  0  0  0  0  0  0  0  0  0  0
   -5.3006   -0.2348    8.6453 H   0  0  0  0  0  0  0  0  0  0  0  0
  1  2  2  0
  2  3  1  0
  3  4  1  0
  4  5  1  0
  5  6  1  0
  6  7  2  0
  6  8  1  0
  8  9  1  0
  9 10  1  0
 10 11  1  0
 11 12  1  0
 12 13  2  0
 13 14  1  0
 14 15  2  0
 15 16  1  0
 16 17  2  0
 11 18  1  0
 18 19  1  0
  2 20  1  0
 20 21  1  0
 21 22  2  0
 22 23  1  0
 23 24  2  0
 24 25  1  0
 25 26  2  0
 26 27  1  0
 27 28  2  0
 28 29  1  0
 19  8  1  0
 29 21  1  0
 17 12  1  0
 28 23  1  0
  3 30  1  0
  3 31  1  0
  4 32  1  0
  4 33  1  0
  5 34  1  0
  5 35  1  0
  9 36  1  0
  9 37  1  0
 10 38  1  0
 10 39  1  0
 13 40  1  0
 14 41  1  0
 15 42  1  0
 16 43  1  0
 18 44  1  0
 18 45  1  0
 19 46  1  0
 19 47  1  0
 20 48  1  0
 24 49  1  0
 25 50  1  0
 26 51  1  0
 27 52  1  0
M  END
>  <Energy>  (168) 
1833.878477171065

>  <compound_id>  (168) 
11043

>  <target_id>  (168) 
1

>  <reference_id>  (168) 
59

>  <inspiration_ids>  (168) 
[69, 59]

>  <energy_score>  (168) 
1709.8242090386345

>  <distance_score>  (168) 
6.571744357787133

>  <path>  (168) 
/opt/xchem-fragalysis-2/maxwin/BulkDock/SCRATCH/511021/C11043-P59/C11043-P59.minimised.mol

>  <scratch_subdir>  (168) 
/opt/xchem-fragalysis-2/maxwin/BulkDock/SCRATCH/511021/C11043-P59

>  <fragmenstein_runtime>  (168) 
18.00482940673828

>  <fragmenstein_outcome>  (168) 
too moved

>  <fragmenstein_mode>  (168) 
expansion

>  <fragmenstein_error>  (168) 


$$$$
C6699-P69
     RDKit          3D

 39 42  0  0  0  0  0  0  0  0999 V2000
   -6.4152   -1.5313   15.3535 O   0  0  0  0  0  0  0  0  0  0  0  0
   -5.6988   -0.5336   15.1480 C   0  0  0  0  0  0  0  0  0  0  0  0
   -4.3922   -0.0724   16.9901 C   0  0  0  0  0  0  0  0  0  0  0  0
   -4.2368   -0.8069   18.7172 C   0  0  0  0  0  0  0  0  0  0  0  0
   -4.1146   -0.5856   20.6961 C   0  0  0  0  0  0  0  0  0  0  0  0
   -3.5057   -2.0741   21.6433 C   0  0  0  0  0  0  0  0  0  0  0  0
   -3.9882   -3.5566   22.6855 S   0  0  0  0  0  0  0  0  0  0  0  0
   -4.8337   -4.3944   21.4355 C   0  0  0  0  0  0  0  0  0  0  0  0
   -4.7552   -3.9895   20.1576 N   0  0  0  0  0  0  0  0  0  0  0  0
   -3.8996   -2.5462   19.8437 C   0  0  0  0  0  0  0  0  0  0  0  0
   -3.7670   -1.4312   18.3189 C   0  0  0  0  0  0  0  0  0  0  0  0
   -6.1660    0.2382   13.4392 N   0  0  0  0  0  0  0  0  0  0  0  0
   -7.2367   -0.2614   12.1772 C   0  0  0  0  0  0  0  0  0  0  0  0
   -8.1919    0.2906   10.7327 C   0  0  0  0  0  0  0  0  0  0  0  0
   -9.0114    1.6600   10.8891 N   0  0  0  0  0  0  0  0  0  0  0  0
   -9.3735    2.2154    9.6653 C   0  0  0  0  0  0  0  0  0  0  0  0
   -9.6361    3.5674    9.4969 C   0  0  0  0  0  0  0  0  0  0  0  0
   -9.8541    4.0933    8.2196 C   0  0  0  0  0  0  0  0  0  0  0  0
   -9.8392    3.2441    7.1250 C   0  0  0  0  0  0  0  0  0  0  0  0
   -9.6509    1.9207    7.2208 N   0  0  0  0  0  0  0  0  0  0  0  0
   -9.4499    1.4513    8.4777 C   0  0  0  0  0  0  0  0  0  0  0  0
   -8.7224    2.4905   12.3946 C   0  0  0  0  0  0  0  0  0  0  0  0
   -7.2863    1.3956   13.3722 C   0  0  0  0  0  0  0  0  0  0  0  0
   -2.8291   -0.3197   18.5931 H   0  0  0  0  0  0  0  0  0  0  0  0
   -4.2025    0.1464   21.4499 H   0  0  0  0  0  0  0  0  0  0  0  0
   -5.3839   -5.2920   21.6849 H   0  0  0  0  0  0  0  0  0  0  0  0
   -2.6426   -1.8184   17.9905 H   0  0  0  0  0  0  0  0  0  0  0  0
   -6.8517    0.5752   11.7674 H   0  0  0  0  0  0  0  0  0  0  0  0
   -6.6584   -0.9929   11.7653 H   0  0  0  0  0  0  0  0  0  0  0  0
   -8.9510   -0.4661   10.5204 H   0  0  0  0  0  0  0  0  0  0  0  0
   -7.4974    0.3495    9.8818 H   0  0  0  0  0  0  0  0  0  0  0  0
   -9.6326    4.2431   10.3447 H   0  0  0  0  0  0  0  0  0  0  0  0
  -10.0275    5.1555    8.0857 H   0  0  0  0  0  0  0  0  0  0  0  0
   -9.9984    3.6231    6.1201 H   0  0  0  0  0  0  0  0  0  0  0  0
   -9.3427    0.3708    8.4918 H   0  0  0  0  0  0  0  0  0  0  0  0
   -9.7022    2.6562   12.8653 H   0  0  0  0  0  0  0  0  0  0  0  0
   -8.6217    3.6009   12.3657 H   0  0  0  0  0  0  0  0  0  0  0  0
   -7.4908    1.1072   14.2712 H   0  0  0  0  0  0  0  0  0  0  0  0
   -6.5476    2.1096   13.6240 H   0  0  0  0  0  0  0  0  0  0  0  0
  1  2  2  0
  2  3  1  0
  3  4  2  0
  4  5  1  0
  5  6  2  0
  6  7  1  0
  7  8  1  0
  8  9  2  0
  9 10  1  0
 10 11  2  0
  2 12  1  0
 12 13  1  0
 13 14  1  0
 14 15  1  0
 15 16  1  0
 16 17  2  0
 17 18  1  0
 18 19  2  0
 19 20  1  0
 20 21  2  0
 15 22  1  0
 22 23  1  0
 11  3  1  0
 23 12  1  0
 10  6  1  0
 21 16  1  0
  4 24  1  0
  5 25  1  0
  8 26  1  0
 11 27  1  0
 13 28  1  0
 13 29  1  0
 14 30  1  0
 14 31  1  0
 17 32  1  0
 18 33  1  0
 19 34  1  0
 21 35  1  0
 22 36  1  0
 22 37  1  0
 23 38  1  0
 23 39  1  0
M  END
>  <Energy>  (169) 
1946.4282658361949

>  <compound_id>  (169) 
6699

>  <target_id>  (169) 
1

>  <reference_id>  (169) 
69

>  <inspiration_ids>  (169) 
[69, 59]

>  <energy_score>  (169) 
1749.1765196249703

>  <distance_score>  (169) 
9.272478839018186

>  <path>  (169) 
/opt/xchem-fragalysis-2/maxwin/BulkDock/SCRATCH/511021/C6699-P69/C6699-P69.minimised.mol

>  <scratch_subdir>  (169) 
/opt/xchem-fragalysis-2/maxwin/BulkDock/SCRATCH/511021/C6699-P69

>  <fragmenstein_runtime>  (169) 
10.592136859893799

>  <fragmenstein_outcome>  (169) 
too moved

>  <fragmenstein_mode>  (169) 
expansion

>  <fragmenstein_error>  (169) 


$$$$
C6699-P59
     RDKit          3D

 39 42  0  0  0  0  0  0  0  0999 V2000
   -5.5835   -7.6619   14.4925 O   0  0  0  0  0  0  0  0  0  0  0  0
   -5.8002   -6.7441   15.2428 C   0  0  0  0  0  0  0  0  0  0  0  0
   -5.2475   -6.9329   16.7699 C   0  0  0  0  0  0  0  0  0  0  0  0
   -5.2462   -8.2350   17.2997 C   0  0  0  0  0  0  0  0  0  0  0  0
   -5.0148   -8.5529   18.6755 C   0  0  0  0  0  0  0  0  0  0  0  0
   -4.8200   -7.5197   19.5995 C   0  0  0  0  0  0  0  0  0  0  0  0
   -4.6071   -7.5605   21.3155 S   0  0  0  0  0  0  0  0  0  0  0  0
   -4.5697   -5.8531   21.3375 C   0  0  0  0  0  0  0  0  0  0  0  0
   -4.6705   -5.2629   20.1690 N   0  0  0  0  0  0  0  0  0  0  0  0
   -4.7881   -6.2042   19.1546 C   0  0  0  0  0  0  0  0  0  0  0  0
   -4.9470   -5.9484   17.7422 C   0  0  0  0  0  0  0  0  0  0  0  0
   -6.5655   -5.5315   15.0447 N   0  0  0  0  0  0  0  0  0  0  0  0
   -7.3953   -5.0979   13.9284 C   0  0  0  0  0  0  0  0  0  0  0  0
   -8.1019   -3.5804   13.8141 C   0  0  0  0  0  0  0  0  0  0  0  0
   -7.3445   -1.9255   14.0727 N   0  0  0  0  0  0  0  0  0  0  0  0
   -6.6929   -0.5589   12.9259 C   0  0  0  0  0  0  0  0  0  0  0  0
   -6.5527    0.6240   13.4480 C   0  0  0  0  0  0  0  0  0  0  0  0
   -6.8231    1.5092   12.4928 C   0  0  0  0  0  0  0  0  0  0  0  0
   -7.2959    1.1157   10.8628 C   0  0  0  0  0  0  0  0  0  0  0  0
   -7.0406    0.0153   10.3416 N   0  0  0  0  0  0  0  0  0  0  0  0
   -7.0741   -0.5924   11.5074 C   0  0  0  0  0  0  0  0  0  0  0  0
   -6.0102   -2.3045   14.2797 C   0  0  0  0  0  0  0  0  0  0  0  0
   -5.5379   -4.2448   14.4352 C   0  0  0  0  0  0  0  0  0  0  0  0
   -5.4673   -9.0645   16.6236 H   0  0  0  0  0  0  0  0  0  0  0  0
   -5.0461   -9.5909   18.9971 H   0  0  0  0  0  0  0  0  0  0  0  0
   -4.4570   -5.2909   22.2522 H   0  0  0  0  0  0  0  0  0  0  0  0
   -4.8649   -4.9088   17.4477 H   0  0  0  0  0  0  0  0  0  0  0  0
   -7.0030   -5.5323   13.0094 H   0  0  0  0  0  0  0  0  0  0  0  0
   -8.3147   -5.5824   14.2650 H   0  0  0  0  0  0  0  0  0  0  0  0
   -7.1191   -3.6247   13.7119 H   0  0  0  0  0  0  0  0  0  0  0  0
   -8.8046   -3.6813   13.0056 H   0  0  0  0  0  0  0  0  0  0  0  0
   -6.1667    0.6249   14.4190 H   0  0  0  0  0  0  0  0  0  0  0  0
   -7.4593    2.2926   12.9666 H   0  0  0  0  0  0  0  0  0  0  0  0
   -8.0403    1.7208   10.3228 H   0  0  0  0  0  0  0  0  0  0  0  0
   -8.1501   -0.8278   11.6874 H   0  0  0  0  0  0  0  0  0  0  0  0
   -6.0368   -1.7847   15.2025 H   0  0  0  0  0  0  0  0  0  0  0  0
   -5.4609   -1.4237   14.2284 H   0  0  0  0  0  0  0  0  0  0  0  0
   -5.0981   -4.6873   13.5505 H   0  0  0  0  0  0  0  0  0  0  0  0
   -4.8349   -4.3132   15.2709 H   0  0  0  0  0  0  0  0  0  0  0  0
  1  2  2  0
  2  3  1  0
  3  4  2  0
  4  5  1  0
  5  6  2  0
  6  7  1  0
  7  8  1  0
  8  9  2  0
  9 10  1  0
 10 11  2  0
  2 12  1  0
 12 13  1  0
 13 14  1  0
 14 15  1  0
 15 16  1  0
 16 17  2  0
 17 18  1  0
 18 19  2  0
 19 20  1  0
 20 21  2  0
 15 22  1  0
 22 23  1  0
 11  3  1  0
 23 12  1  0
 10  6  1  0
 21 16  1  0
  4 24  1  0
  5 25  1  0
  8 26  1  0
 11 27  1  0
 13 28  1  0
 13 29  1  0
 14 30  1  0
 14 31  1  0
 17 32  1  0
 18 33  1  0
 19 34  1  0
 21 35  1  0
 22 36  1  0
 22 37  1  0
 23 38  1  0
 23 39  1  0
M  END
>  <Energy>  (170) 
697.38010604365161

>  <compound_id>  (170) 
6699

>  <target_id>  (170) 
1

>  <reference_id>  (170) 
59

>  <inspiration_ids>  (170) 
[69, 59]

>  <energy_score>  (170) 
500.1283598324085

>  <distance_score>  (170) 
10.751016773856646

>  <path>  (170) 
/opt/xchem-fragalysis-2/maxwin/BulkDock/SCRATCH/511021/C6699-P59/C6699-P59.minimised.mol

>  <scratch_subdir>  (170) 
/opt/xchem-fragalysis-2/maxwin/BulkDock/SCRATCH/511021/C6699-P59

>  <fragmenstein_runtime>  (170) 
15.433601140975952

>  <fragmenstein_outcome>  (170) 
too moved

>  <fragmenstein_mode>  (170) 
expansion

>  <fragmenstein_error>  (170) 


$$$$
C52437-P69
     RDKit          3D

 41 44  0  0  0  0  0  0  0  0999 V2000
   -2.6495    3.6393   22.5168 O   0  0  0  0  0  0  0  0  0  0  0  0
   -2.4802    4.7698   22.7798 C   0  0  0  0  0  0  0  0  0  0  0  0
   -1.5331    5.3933   23.6895 N   0  0  0  0  0  0  0  0  0  0  0  0
   -0.4527    4.8235   24.4706 C   0  0  0  0  0  0  0  0  0  0  0  0
   -0.7918    4.0455   25.7270 C   0  0  0  0  0  0  0  0  0  0  0  0
   -0.0742    4.1432   26.8325 N   0  0  0  0  0  0  0  0  0  0  0  0
   -0.3585    3.0991   27.6983 C   0  0  0  0  0  0  0  0  0  0  0  0
    0.2787    2.8495   28.9313 C   0  0  0  0  0  0  0  0  0  0  0  0
   -0.0532    1.7076   29.6679 C   0  0  0  0  0  0  0  0  0  0  0  0
   -1.0084    0.8181   29.1885 C   0  0  0  0  0  0  0  0  0  0  0  0
   -1.6624    1.0521   27.9748 C   0  0  0  0  0  0  0  0  0  0  0  0
   -1.3334    2.2092   27.2516 C   0  0  0  0  0  0  0  0  0  0  0  0
   -1.9632    2.7894   25.7571 S   0  0  0  0  0  0  0  0  0  0  0  0
   -3.1942    5.9760   22.3084 N   0  0  0  0  0  0  0  0  0  0  0  0
   -2.5019    6.5496   21.0278 C   0  0  0  0  0  0  0  0  0  0  0  0
   -2.4451    5.8168   19.6348 C   0  0  0  0  0  0  0  0  0  0  0  0
   -3.7871    5.5200   19.1290 N   0  0  0  0  0  0  0  0  0  0  0  0
   -3.9337    4.9342   17.8714 C   0  0  0  0  0  0  0  0  0  0  0  0
   -2.9643    4.8047   16.9787 N   0  0  0  0  0  0  0  0  0  0  0  0
   -3.3959    4.1679   15.8205 C   0  0  0  0  0  0  0  0  0  0  0  0
   -4.7168    3.7979   15.8091 C   0  0  0  0  0  0  0  0  0  0  0  0
   -5.4457    4.2679   17.2833 S   0  0  0  0  0  0  0  0  0  0  0  0
   -4.6683    5.1559   20.2436 C   0  0  0  0  0  0  0  0  0  0  0  0
   -4.4238    6.1114   21.4393 C   0  0  0  0  0  0  0  0  0  0  0  0
   -1.7205    6.3859   23.7331 H   0  0  0  0  0  0  0  0  0  0  0  0
    0.2134    5.6529   24.7324 H   0  0  0  0  0  0  0  0  0  0  0  0
    0.0998    4.1528   23.8018 H   0  0  0  0  0  0  0  0  0  0  0  0
    1.0361    3.5405   29.2873 H   0  0  0  0  0  0  0  0  0  0  0  0
    0.4483    1.5105   30.6119 H   0  0  0  0  0  0  0  0  0  0  0  0
   -1.2480   -0.0829   29.7517 H   0  0  0  0  0  0  0  0  0  0  0  0
   -2.3927    0.3412   27.6009 H   0  0  0  0  0  0  0  0  0  0  0  0
   -2.7809    7.6097   20.8990 H   0  0  0  0  0  0  0  0  0  0  0  0
   -1.4449    6.6248   21.3265 H   0  0  0  0  0  0  0  0  0  0  0  0
   -1.9244    6.4780   18.9309 H   0  0  0  0  0  0  0  0  0  0  0  0
   -1.8378    4.9171   19.7314 H   0  0  0  0  0  0  0  0  0  0  0  0
   -2.6884    4.0083   15.0158 H   0  0  0  0  0  0  0  0  0  0  0  0
   -5.2817    3.3005   15.0367 H   0  0  0  0  0  0  0  0  0  0  0  0
   -5.7098    5.2894   19.9354 H   0  0  0  0  0  0  0  0  0  0  0  0
   -4.5035    4.1185   20.5459 H   0  0  0  0  0  0  0  0  0  0  0  0
   -4.6792    7.1606   21.2151 H   0  0  0  0  0  0  0  0  0  0  0  0
   -5.2076    5.8314   22.1584 H   0  0  0  0  0  0  0  0  0  0  0  0
  1  2  2  0
  2  3  1  0
  3  4  1  0
  4  5  1  0
  5  6  2  0
  6  7  1  0
  7  8  2  0
  8  9  1  0
  9 10  2  0
 10 11  1  0
 11 12  2  0
 12 13  1  0
  2 14  1  0
 14 15  1  0
 15 16  1  0
 16 17  1  0
 17 18  1  0
 18 19  2  0
 19 20  1  0
 20 21  2  0
 21 22  1  0
 17 23  1  0
 23 24  1  0
 13  5  1  0
 24 14  1  0
 12  7  1  0
 22 18  1  0
  3 25  1  0
  4 26  1  0
  4 27  1  0
  8 28  1  0
  9 29  1  0
 10 30  1  0
 11 31  1  0
 15 32  1  0
 15 33  1  0
 16 34  1  0
 16 35  1  0
 20 36  1  0
 21 37  1  0
 23 38  1  0
 23 39  1  0
 24 40  1  0
 24 41  1  0
M  END
>  <Energy>  (171) 
59.576586091136946

>  <compound_id>  (171) 
52437

>  <target_id>  (171) 
1

>  <reference_id>  (171) 
69

>  <inspiration_ids>  (171) 
[69, 59]

>  <energy_score>  (171) 
-44.183959161513485

>  <distance_score>  (171) 
11.099650065724942

>  <path>  (171) 
/opt/xchem-fragalysis-2/maxwin/BulkDock/SCRATCH/511021/C52437-P69/C52437-P69.minimised.mol

>  <scratch_subdir>  (171) 
/opt/xchem-fragalysis-2/maxwin/BulkDock/SCRATCH/511021/C52437-P69

>  <fragmenstein_runtime>  (171) 
15.677023887634277

>  <fragmenstein_outcome>  (171) 
too moved

>  <fragmenstein_mode>  (171) 
expansion

>  <fragmenstein_error>  (171) 


$$$$
C52437-P59
     RDKit          3D

 41 44  0  0  0  0  0  0  0  0999 V2000
   -0.5293   -0.0297   29.7994 O   0  0  0  0  0  0  0  0  0  0  0  0
   -0.2539   -0.5567   28.7888 C   0  0  0  0  0  0  0  0  0  0  0  0
    0.9231   -1.3071   28.4124 N   0  0  0  0  0  0  0  0  0  0  0  0
    2.0666   -1.7151   29.1860 C   0  0  0  0  0  0  0  0  0  0  0  0
    1.6139   -2.0435   30.5764 C   0  0  0  0  0  0  0  0  0  0  0  0
    1.9133   -1.3249   31.6373 N   0  0  0  0  0  0  0  0  0  0  0  0
    1.1259   -1.7168   32.7012 C   0  0  0  0  0  0  0  0  0  0  0  0
    1.1013   -1.1163   33.9766 C   0  0  0  0  0  0  0  0  0  0  0  0
    0.2444   -1.6128   34.9637 C   0  0  0  0  0  0  0  0  0  0  0  0
   -0.5791   -2.7001   34.6942 C   0  0  0  0  0  0  0  0  0  0  0  0
   -0.5644   -3.3176   33.4393 C   0  0  0  0  0  0  0  0  0  0  0  0
    0.2949   -2.8108   32.4562 C   0  0  0  0  0  0  0  0  0  0  0  0
    0.5371   -3.3611   30.8466 S   0  0  0  0  0  0  0  0  0  0  0  0
   -0.9858   -0.6308   27.5465 N   0  0  0  0  0  0  0  0  0  0  0  0
   -1.8820   -1.8656   27.5331 C   0  0  0  0  0  0  0  0  0  0  0  0
   -2.9901   -2.2148   26.4109 C   0  0  0  0  0  0  0  0  0  0  0  0
   -2.9854   -1.6619   25.1425 N   0  0  0  0  0  0  0  0  0  0  0  0
   -2.3469   -2.6384   23.8767 C   0  0  0  0  0  0  0  0  0  0  0  0
   -1.1997   -2.2633   22.8941 N   0  0  0  0  0  0  0  0  0  0  0  0
    0.3615   -3.1890   22.9725 C   0  0  0  0  0  0  0  0  0  0  0  0
    0.1247   -4.6147   23.4284 C   0  0  0  0  0  0  0  0  0  0  0  0
   -1.8788   -4.8702   24.1273 S   0  0  0  0  0  0  0  0  0  0  0  0
   -2.6122   -0.1928   25.6903 C   0  0  0  0  0  0  0  0  0  0  0  0
   -2.2142    0.0048   27.1445 C   0  0  0  0  0  0  0  0  0  0  0  0
    0.8617   -1.5482   27.4325 H   0  0  0  0  0  0  0  0  0  0  0  0
    2.7775   -0.8836   29.1964 H   0  0  0  0  0  0  0  0  0  0  0  0
    2.5308   -2.5763   28.6968 H   0  0  0  0  0  0  0  0  0  0  0  0
    1.7440   -0.2647   34.1757 H   0  0  0  0  0  0  0  0  0  0  0  0
    0.2238   -1.1431   35.9440 H   0  0  0  0  0  0  0  0  0  0  0  0
   -1.2461   -3.0799   35.4660 H   0  0  0  0  0  0  0  0  0  0  0  0
   -1.2006   -4.1730   33.2438 H   0  0  0  0  0  0  0  0  0  0  0  0
   -1.1727   -2.7038   27.5821 H   0  0  0  0  0  0  0  0  0  0  0  0
   -2.3607   -1.9485   28.5281 H   0  0  0  0  0  0  0  0  0  0  0  0
   -2.8933   -3.1502   25.9491 H   0  0  0  0  0  0  0  0  0  0  0  0
   -3.9687   -2.1801   26.8805 H   0  0  0  0  0  0  0  0  0  0  0  0
    1.1745   -2.8295   22.3738 H   0  0  0  0  0  0  0  0  0  0  0  0
    0.6942   -5.5333   23.3942 H   0  0  0  0  0  0  0  0  0  0  0  0
   -1.7801    0.2564   25.2160 H   0  0  0  0  0  0  0  0  0  0  0  0
   -3.4749    0.4711   25.5812 H   0  0  0  0  0  0  0  0  0  0  0  0
   -1.9732    1.0772   27.2357 H   0  0  0  0  0  0  0  0  0  0  0  0
   -2.9933   -0.0752   27.8948 H   0  0  0  0  0  0  0  0  0  0  0  0
  1  2  2  0
  2  3  1  0
  3  4  1  0
  4  5  1  0
  5  6  2  0
  6  7  1  0
  7  8  2  0
  8  9  1  0
  9 10  2  0
 10 11  1  0
 11 12  2  0
 12 13  1  0
  2 14  1  0
 14 15  1  0
 15 16  1  0
 16 17  1  0
 17 18  1  0
 18 19  2  0
 19 20  1  0
 20 21  2  0
 21 22  1  0
 17 23  1  0
 23 24  1  0
 13  5  1  0
 24 14  1  0
 12  7  1  0
 22 18  1  0
  3 25  1  0
  4 26  1  0
  4 27  1  0
  8 28  1  0
  9 29  1  0
 10 30  1  0
 11 31  1  0
 15 32  1  0
 15 33  1  0
 16 34  1  0
 16 35  1  0
 20 36  1  0
 21 37  1  0
 23 38  1  0
 23 39  1  0
 24 40  1  0
 24 41  1  0
M  END
>  <Energy>  (172) 
330.20153116746195

>  <compound_id>  (172) 
52437

>  <target_id>  (172) 
1

>  <reference_id>  (172) 
59

>  <inspiration_ids>  (172) 
[69, 59]

>  <energy_score>  (172) 
226.44098591481668

>  <distance_score>  (172) 
11.515260357424252

>  <path>  (172) 
/opt/xchem-fragalysis-2/maxwin/BulkDock/SCRATCH/511021/C52437-P59/C52437-P59.minimised.mol

>  <scratch_subdir>  (172) 
/opt/xchem-fragalysis-2/maxwin/BulkDock/SCRATCH/511021/C52437-P59

>  <fragmenstein_runtime>  (172) 
16.376927614212036

>  <fragmenstein_outcome>  (172) 
too moved

>  <fragmenstein_mode>  (172) 
expansion

>  <fragmenstein_error>  (172) 


$$$$
C6747-P69
     RDKit          3D

 37 40  0  0  0  0  0  0  0  0999 V2000
   -5.1687   -0.5293    7.5514 C   0  0  0  0  0  0  0  0  0  0  0  0
   -6.5604   -0.4546    7.8146 C   0  0  0  0  0  0  0  0  0  0  0  0
   -7.0665   -0.3498    9.1147 C   0  0  0  0  0  0  0  0  0  0  0  0
   -6.0423   -0.3502   10.0496 C   0  0  0  0  0  0  0  0  0  0  0  0
   -5.9609   -0.4302   12.2882 S   0  0  0  0  0  0  0  0  0  0  0  0
   -3.6080   -0.3084   12.4280 C   0  0  0  0  0  0  0  0  0  0  0  0
   -3.0107   -0.8013   14.0261 N   0  0  0  0  0  0  0  0  0  0  0  0
   -3.4367    0.7636   15.3407 C   0  0  0  0  0  0  0  0  0  0  0  0
   -3.9687    0.3047   17.4113 C   0  0  0  0  0  0  0  0  0  0  0  0
   -3.5513   -0.9234   19.1562 N   0  0  0  0  0  0  0  0  0  0  0  0
   -3.4591   -0.3932   21.2823 C   0  0  0  0  0  0  0  0  0  0  0  0
   -2.5973    1.1265   22.3676 C   0  0  0  0  0  0  0  0  0  0  0  0
   -2.6659    1.8980   24.1995 C   0  0  0  0  0  0  0  0  0  0  0  0
   -3.4583    0.7315   25.5194 N   0  0  0  0  0  0  0  0  0  0  0  0
   -3.8884   -1.0202   24.7121 C   0  0  0  0  0  0  0  0  0  0  0  0
   -3.6279   -1.5090   22.8302 C   0  0  0  0  0  0  0  0  0  0  0  0
   -2.3254   -1.7934   17.6253 C   0  0  0  0  0  0  0  0  0  0  0  0
   -2.2290   -2.4073   15.4146 C   0  0  0  0  0  0  0  0  0  0  0  0
   -4.4013   -0.3564   11.2961 N   0  0  0  0  0  0  0  0  0  0  0  0
   -4.6758   -0.3730    9.8550 C   0  0  0  0  0  0  0  0  0  0  0  0
   -4.1825   -0.4625    8.5682 C   0  0  0  0  0  0  0  0  0  0  0  0
   -4.8426   -0.6556    6.5190 H   0  0  0  0  0  0  0  0  0  0  0  0
   -7.2584   -0.5123    6.9801 H   0  0  0  0  0  0  0  0  0  0  0  0
   -8.1156   -0.3270    9.3658 H   0  0  0  0  0  0  0  0  0  0  0  0
   -4.6263    0.8594   15.1071 H   0  0  0  0  0  0  0  0  0  0  0  0
   -2.6916    1.5728   15.0932 H   0  0  0  0  0  0  0  0  0  0  0  0
   -3.6098   -0.5631   17.2974 H   0  0  0  0  0  0  0  0  0  0  0  0
   -4.9742    0.7330   17.5492 H   0  0  0  0  0  0  0  0  0  0  0  0
   -1.8556    1.8127   21.9201 H   0  0  0  0  0  0  0  0  0  0  0  0
   -2.1341    2.7482   24.5993 H   0  0  0  0  0  0  0  0  0  0  0  0
   -4.0834   -1.6874   25.5275 H   0  0  0  0  0  0  0  0  0  0  0  0
   -3.8908   -2.5574   22.6704 H   0  0  0  0  0  0  0  0  0  0  0  0
   -1.3961   -1.1926   17.7410 H   0  0  0  0  0  0  0  0  0  0  0  0
   -1.6503   -2.4738   18.0949 H   0  0  0  0  0  0  0  0  0  0  0  0
   -1.1885   -2.6007   15.0142 H   0  0  0  0  0  0  0  0  0  0  0  0
   -2.5011   -3.3126   16.0207 H   0  0  0  0  0  0  0  0  0  0  0  0
   -3.1260   -0.5462    8.3543 H   0  0  0  0  0  0  0  0  0  0  0  0
  1  2  2  0
  2  3  1  0
  3  4  2  0
  4  5  1  0
  5  6  1  0
  6  7  1  0
  7  8  1  0
  8  9  1  0
  9 10  1  0
 10 11  1  0
 11 12  2  0
 12 13  1  0
 13 14  2  0
 14 15  1  0
 15 16  2  0
 10 17  1  0
 17 18  1  0
  6 19  2  0
 19 20  1  0
 20 21  2  0
 21  1  1  0
 20  4  1  0
 18  7  1  0
 16 11  1  0
  1 22  1  0
  2 23  1  0
  3 24  1  0
  8 25  1  0
  8 26  1  0
  9 27  1  0
  9 28  1  0
 12 29  1  0
 13 30  1  0
 15 31  1  0
 16 32  1  0
 17 33  1  0
 17 34  1  0
 18 35  1  0
 18 36  1  0
 21 37  1  0
M  END
>  <Energy>  (173) 
2572.4626685068474

>  <compound_id>  (173) 
6747

>  <target_id>  (173) 
1

>  <reference_id>  (173) 
69

>  <inspiration_ids>  (173) 
[69, 59]

>  <energy_score>  (173) 
2418.861206934922

>  <distance_score>  (173) 
5.784283490094595

>  <path>  (173) 
/opt/xchem-fragalysis-2/maxwin/BulkDock/SCRATCH/511021/C6747-P69/C6747-P69.minimised.mol

>  <scratch_subdir>  (173) 
/opt/xchem-fragalysis-2/maxwin/BulkDock/SCRATCH/511021/C6747-P69

>  <fragmenstein_runtime>  (173) 
9.72782826423645

>  <fragmenstein_outcome>  (173) 
too moved

>  <fragmenstein_mode>  (173) 
expansion

>  <fragmenstein_error>  (173) 


$$$$
C6747-P59
     RDKit          3D

 37 40  0  0  0  0  0  0  0  0999 V2000
   -5.3122   -0.2336    8.6502 C   0  0  0  0  0  0  0  0  0  0  0  0
   -6.5062   -0.0921    9.2982 C   0  0  0  0  0  0  0  0  0  0  0  0
   -6.5161   -0.1023   10.7531 C   0  0  0  0  0  0  0  0  0  0  0  0
   -5.4243   -0.3883   11.7816 C   0  0  0  0  0  0  0  0  0  0  0  0
   -3.2353   -0.4335   12.5399 S   0  0  0  0  0  0  0  0  0  0  0  0
   -2.5556   -2.7434   12.9374 C   0  0  0  0  0  0  0  0  0  0  0  0
   -3.6943   -4.3504   13.3472 N   0  0  0  0  0  0  0  0  0  0  0  0
   -5.2465   -3.7138   14.3590 C   0  0  0  0  0  0  0  0  0  0  0  0
   -4.7050   -3.5891   16.3564 C   0  0  0  0  0  0  0  0  0  0  0  0
   -4.8442   -4.3894   17.8684 N   0  0  0  0  0  0  0  0  0  0  0  0
   -5.0583   -4.2718   19.4469 C   0  0  0  0  0  0  0  0  0  0  0  0
   -4.4556   -4.6819   20.6094 C   0  0  0  0  0  0  0  0  0  0  0  0
   -4.7868   -4.4755   22.0259 C   0  0  0  0  0  0  0  0  0  0  0  0
   -5.8925   -3.8819   22.4901 N   0  0  0  0  0  0  0  0  0  0  0  0
   -6.7036   -3.6265   21.5128 C   0  0  0  0  0  0  0  0  0  0  0  0
   -6.2603   -4.0069   20.1721 C   0  0  0  0  0  0  0  0  0  0  0  0
   -4.7124   -5.4774   16.9999 C   0  0  0  0  0  0  0  0  0  0  0  0
   -4.6385   -4.9160   15.0204 C   0  0  0  0  0  0  0  0  0  0  0  0
   -2.6938   -1.0219   12.3672 N   0  0  0  0  0  0  0  0  0  0  0  0
   -4.2002   -0.4416   11.1529 C   0  0  0  0  0  0  0  0  0  0  0  0
   -4.2011   -0.3438    9.4886 C   0  0  0  0  0  0  0  0  0  0  0  0
   -5.2227   -0.2474    7.5722 H   0  0  0  0  0  0  0  0  0  0  0  0
   -7.4411    0.0081    8.7532 H   0  0  0  0  0  0  0  0  0  0  0  0
   -7.5173   -0.1509   11.1196 H   0  0  0  0  0  0  0  0  0  0  0  0
   -5.6709   -2.7229   14.0917 H   0  0  0  0  0  0  0  0  0  0  0  0
   -6.1814   -4.1932   13.9664 H   0  0  0  0  0  0  0  0  0  0  0  0
   -3.6679   -3.2850   16.1230 H   0  0  0  0  0  0  0  0  0  0  0  0
   -3.7812   -4.0932   16.4547 H   0  0  0  0  0  0  0  0  0  0  0  0
   -3.5233   -5.1295   20.5231 H   0  0  0  0  0  0  0  0  0  0  0  0
   -4.1010   -4.8478   22.7726 H   0  0  0  0  0  0  0  0  0  0  0  0
   -7.6701   -3.1844   21.7056 H   0  0  0  0  0  0  0  0  0  0  0  0
   -6.4236   -5.1011   20.5228 H   0  0  0  0  0  0  0  0  0  0  0  0
   -3.9593   -6.2072   17.2889 H   0  0  0  0  0  0  0  0  0  0  0  0
   -5.6840   -6.0303   17.1141 H   0  0  0  0  0  0  0  0  0  0  0  0
   -3.8410   -5.3950   15.2532 H   0  0  0  0  0  0  0  0  0  0  0  0
   -5.6962   -5.1948   15.1077 H   0  0  0  0  0  0  0  0  0  0  0  0
   -3.2273   -0.4386    9.0007 H   0  0  0  0  0  0  0  0  0  0  0  0
  1  2  2  0
  2  3  1  0
  3  4  2  0
  4  5  1  0
  5  6  1  0
  6  7  1  0
  7  8  1  0
  8  9  1  0
  9 10  1  0
 10 11  1  0
 11 12  2  0
 12 13  1  0
 13 14  2  0
 14 15  1  0
 15 16  2  0
 10 17  1  0
 17 18  1  0
  6 19  2  0
 19 20  1  0
 20 21  2  0
 21  1  1  0
 20  4  1  0
 18  7  1  0
 16 11  1  0
  1 22  1  0
  2 23  1  0
  3 24  1  0
  8 25  1  0
  8 26  1  0
  9 27  1  0
  9 28  1  0
 12 29  1  0
 13 30  1  0
 15 31  1  0
 16 32  1  0
 17 33  1  0
 17 34  1  0
 18 35  1  0
 18 36  1  0
 21 37  1  0
M  END
>  <Energy>  (174) 
1969.3162943120574

>  <compound_id>  (174) 
6747

>  <target_id>  (174) 
1

>  <reference_id>  (174) 
59

>  <inspiration_ids>  (174) 
[69, 59]

>  <energy_score>  (174) 
1815.714832740106

>  <distance_score>  (174) 
8.067701807385811

>  <path>  (174) 
/opt/xchem-fragalysis-2/maxwin/BulkDock/SCRATCH/511021/C6747-P59/C6747-P59.minimised.mol

>  <scratch_subdir>  (174) 
/opt/xchem-fragalysis-2/maxwin/BulkDock/SCRATCH/511021/C6747-P59

>  <fragmenstein_runtime>  (174) 
12.03192138671875

>  <fragmenstein_outcome>  (174) 
too moved

>  <fragmenstein_mode>  (174) 
expansion

>  <fragmenstein_error>  (174) 


$$$$
C52441-P69
     RDKit          3D

 34 37  0  0  0  0  0  0  0  0999 V2000
   -4.1879   -1.7624   25.5119 C   0  0  0  0  0  0  0  0  0  0  0  0
   -5.5459   -1.9293   26.0737 C   0  0  0  0  0  0  0  0  0  0  0  0
   -7.2338   -1.4252   25.7145 C   0  0  0  0  0  0  0  0  0  0  0  0
   -7.6345   -1.9267   24.5627 C   0  0  0  0  0  0  0  0  0  0  0  0
   -9.0323   -2.0683   23.5550 S   0  0  0  0  0  0  0  0  0  0  0  0
   -7.7946   -2.3783   21.7359 C   0  0  0  0  0  0  0  0  0  0  0  0
   -8.4736   -2.2509   20.1486 N   0  0  0  0  0  0  0  0  0  0  0  0
  -10.1763   -2.5108   19.6851 C   0  0  0  0  0  0  0  0  0  0  0  0
  -10.5137   -1.9463   17.8930 C   0  0  0  0  0  0  0  0  0  0  0  0
   -9.2602   -0.9882   16.9176 N   0  0  0  0  0  0  0  0  0  0  0  0
   -7.6713   -1.2216   15.7890 C   0  0  0  0  0  0  0  0  0  0  0  0
   -6.9956   -1.8421   14.5311 N   0  0  0  0  0  0  0  0  0  0  0  0
   -6.5165   -0.7341   13.0511 C   0  0  0  0  0  0  0  0  0  0  0  0
   -6.6978    0.6194   13.2681 C   0  0  0  0  0  0  0  0  0  0  0  0
   -6.1062    0.0580   14.8319 S   0  0  0  0  0  0  0  0  0  0  0  0
   -9.4756   -0.0057   17.9964 C   0  0  0  0  0  0  0  0  0  0  0  0
   -8.7544   -0.6390   19.1068 C   0  0  0  0  0  0  0  0  0  0  0  0
   -6.7921   -2.9700   22.3433 N   0  0  0  0  0  0  0  0  0  0  0  0
   -6.4455   -2.3718   24.0084 C   0  0  0  0  0  0  0  0  0  0  0  0
   -4.5871   -2.3821   24.2889 C   0  0  0  0  0  0  0  0  0  0  0  0
   -3.3806   -1.8923   26.2072 H   0  0  0  0  0  0  0  0  0  0  0  0
   -5.3005   -2.3749   27.1179 H   0  0  0  0  0  0  0  0  0  0  0  0
   -7.9880   -1.3184   26.5065 H   0  0  0  0  0  0  0  0  0  0  0  0
  -10.4005   -3.5712   19.7966 H   0  0  0  0  0  0  0  0  0  0  0  0
  -10.8331   -1.9069   20.3202 H   0  0  0  0  0  0  0  0  0  0  0  0
  -11.2293   -2.5448   17.3068 H   0  0  0  0  0  0  0  0  0  0  0  0
  -11.3102   -1.2122   18.1106 H   0  0  0  0  0  0  0  0  0  0  0  0
   -6.9806   -0.9794   12.0996 H   0  0  0  0  0  0  0  0  0  0  0  0
   -7.4727    1.2608   12.8972 H   0  0  0  0  0  0  0  0  0  0  0  0
  -10.4942    0.3465   18.1973 H   0  0  0  0  0  0  0  0  0  0  0  0
   -8.9906    0.9224   17.8063 H   0  0  0  0  0  0  0  0  0  0  0  0
   -8.1435   -0.9564   18.3061 H   0  0  0  0  0  0  0  0  0  0  0  0
   -8.2175    0.3007   19.2728 H   0  0  0  0  0  0  0  0  0  0  0  0
   -3.9150   -2.8373   23.5496 H   0  0  0  0  0  0  0  0  0  0  0  0
  1  2  2  0
  2  3  1  0
  3  4  2  0
  4  5  1  0
  5  6  1  0
  6  7  1  0
  7  8  1  0
  8  9  1  0
  9 10  1  0
 10 11  1  0
 11 12  2  0
 12 13  1  0
 13 14  2  0
 14 15  1  0
 10 16  1  0
 16 17  1  0
  6 18  2  0
 18 19  1  0
 19 20  2  0
 20  1  1  0
 19  4  1  0
 17  7  1  0
 15 11  1  0
  1 21  1  0
  2 22  1  0
  3 23  1  0
  8 24  1  0
  8 25  1  0
  9 26  1  0
  9 27  1  0
 13 28  1  0
 14 29  1  0
 16 30  1  0
 16 31  1  0
 17 32  1  0
 17 33  1  0
 20 34  1  0
M  END
>  <Energy>  (175) 
1132.867910489256

>  <compound_id>  (175) 
52441

>  <target_id>  (175) 
1

>  <reference_id>  (175) 
69

>  <inspiration_ids>  (175) 
[69, 59]

>  <energy_score>  (175) 
981.9881316907869

>  <distance_score>  (175) 
8.210454445963538

>  <path>  (175) 
/opt/xchem-fragalysis-2/maxwin/BulkDock/SCRATCH/511021/C52441-P69/C52441-P69.minimised.mol

>  <scratch_subdir>  (175) 
/opt/xchem-fragalysis-2/maxwin/BulkDock/SCRATCH/511021/C52441-P69

>  <fragmenstein_runtime>  (175) 
13.154829263687134

>  <fragmenstein_outcome>  (175) 
too moved

>  <fragmenstein_mode>  (175) 
expansion

>  <fragmenstein_error>  (175) 


$$$$
C52441-P59
     RDKit          3D

 34 37  0  0  0  0  0  0  0  0999 V2000
   -0.8229   -1.6120   28.7110 C   0  0  0  0  0  0  0  0  0  0  0  0
   -1.1007   -0.2768   28.4520 C   0  0  0  0  0  0  0  0  0  0  0  0
   -1.8932    0.0764   27.3604 C   0  0  0  0  0  0  0  0  0  0  0  0
   -2.3551   -0.9700   26.5631 C   0  0  0  0  0  0  0  0  0  0  0  0
   -3.4024   -1.2257   25.3820 S   0  0  0  0  0  0  0  0  0  0  0  0
   -3.2128   -2.7349   24.0936 C   0  0  0  0  0  0  0  0  0  0  0  0
   -3.8127   -3.1107   22.4350 N   0  0  0  0  0  0  0  0  0  0  0  0
   -4.6213   -4.1864   21.2427 C   0  0  0  0  0  0  0  0  0  0  0  0
   -4.2617   -4.0297   19.3385 C   0  0  0  0  0  0  0  0  0  0  0  0
   -3.3283   -2.5440   18.6709 N   0  0  0  0  0  0  0  0  0  0  0  0
   -1.8019   -2.0171   17.8893 C   0  0  0  0  0  0  0  0  0  0  0  0
   -1.2187   -2.6863   16.9579 N   0  0  0  0  0  0  0  0  0  0  0  0
   -0.0358   -1.8473   16.0279 C   0  0  0  0  0  0  0  0  0  0  0  0
    0.3605   -0.6395   16.4745 C   0  0  0  0  0  0  0  0  0  0  0  0
    0.1765   -1.0390   18.0196 S   0  0  0  0  0  0  0  0  0  0  0  0
   -3.9578   -1.7222   19.3897 C   0  0  0  0  0  0  0  0  0  0  0  0
   -3.4696   -1.9754   21.5226 C   0  0  0  0  0  0  0  0  0  0  0  0
   -2.9298   -3.2161   25.3472 N   0  0  0  0  0  0  0  0  0  0  0  0
   -2.1939   -2.2748   26.7127 C   0  0  0  0  0  0  0  0  0  0  0  0
   -1.3334   -2.6054   27.8600 C   0  0  0  0  0  0  0  0  0  0  0  0
   -0.1984   -1.8888   29.5548 H   0  0  0  0  0  0  0  0  0  0  0  0
   -0.7140    0.4998   29.1067 H   0  0  0  0  0  0  0  0  0  0  0  0
   -2.1714    1.1058   27.1639 H   0  0  0  0  0  0  0  0  0  0  0  0
   -4.4041   -5.2172   21.4791 H   0  0  0  0  0  0  0  0  0  0  0  0
   -5.7026   -4.0194   21.3106 H   0  0  0  0  0  0  0  0  0  0  0  0
   -5.0988   -4.3455   18.7567 H   0  0  0  0  0  0  0  0  0  0  0  0
   -3.7103   -4.9159   19.1680 H   0  0  0  0  0  0  0  0  0  0  0  0
   -0.0383   -2.2837   15.0286 H   0  0  0  0  0  0  0  0  0  0  0  0
    0.9676    0.1480   16.0549 H   0  0  0  0  0  0  0  0  0  0  0  0
   -3.4251   -0.9977   18.8421 H   0  0  0  0  0  0  0  0  0  0  0  0
   -4.7146   -1.1771   18.9578 H   0  0  0  0  0  0  0  0  0  0  0  0
   -2.4316   -1.8275   21.8861 H   0  0  0  0  0  0  0  0  0  0  0  0
   -3.7644   -0.9241   21.7195 H   0  0  0  0  0  0  0  0  0  0  0  0
   -1.0654   -3.6371   28.0547 H   0  0  0  0  0  0  0  0  0  0  0  0
  1  2  2  0
  2  3  1  0
  3  4  2  0
  4  5  1  0
  5  6  1  0
  6  7  1  0
  7  8  1  0
  8  9  1  0
  9 10  1  0
 10 11  1  0
 11 12  2  0
 12 13  1  0
 13 14  2  0
 14 15  1  0
 10 16  1  0
 16 17  1  0
  6 18  2  0
 18 19  1  0
 19 20  2  0
 20  1  1  0
 19  4  1  0
 17  7  1  0
 15 11  1  0
  1 21  1  0
  2 22  1  0
  3 23  1  0
  8 24  1  0
  8 25  1  0
  9 26  1  0
  9 27  1  0
 13 28  1  0
 14 29  1  0
 16 30  1  0
 16 31  1  0
 17 32  1  0
 17 33  1  0
 20 34  1  0
M  END
>  <Energy>  (176) 
894.96672705372418

>  <compound_id>  (176) 
52441

>  <target_id>  (176) 
1

>  <reference_id>  (176) 
59

>  <inspiration_ids>  (176) 
[69, 59]

>  <energy_score>  (176) 
744.0869482552366

>  <distance_score>  (176) 
8.480279202087116

>  <path>  (176) 
/opt/xchem-fragalysis-2/maxwin/BulkDock/SCRATCH/511021/C52441-P59/C52441-P59.minimised.mol

>  <scratch_subdir>  (176) 
/opt/xchem-fragalysis-2/maxwin/BulkDock/SCRATCH/511021/C52441-P59

>  <fragmenstein_runtime>  (176) 
18.07676410675049

>  <fragmenstein_outcome>  (176) 
too moved

>  <fragmenstein_mode>  (176) 
expansion

>  <fragmenstein_error>  (176) 


$$$$
C62010-P93
     RDKit          3D

 45 46  0  0  0  0  0  0  0  0999 V2000
   13.0183   -0.1856   16.3153 C   0  0  0  0  0  0  0  0  0  0  0  0
   12.6525   -1.4980   15.6171 C   0  0  0  0  0  0  0  0  0  0  0  0
   12.3676   -1.2555   14.1474 C   0  0  0  0  0  0  0  0  0  0  0  0
   13.8500   -2.4244   15.7936 C   0  0  0  0  0  0  0  0  0  0  0  0
   14.7476   -2.4590   15.0451 O   0  0  0  0  0  0  0  0  0  0  0  0
   13.6404   -3.1569   17.1527 N   0  0  0  0  0  0  0  0  0  0  0  0
   14.4960   -3.9682   17.8769 C   0  0  0  0  0  0  0  0  0  0  0  0
   15.7692   -4.2559   17.3880 C   0  0  0  0  0  0  0  0  0  0  0  0
   16.7650   -4.6401   18.2736 C   0  0  0  0  0  0  0  0  0  0  0  0
   16.4765   -4.6709   19.6455 C   0  0  0  0  0  0  0  0  0  0  0  0
   17.5723   -4.3169   20.6231 C   0  0  0  0  0  0  0  0  0  0  0  0
   18.0416   -2.9440   20.3678 N   0  0  0  0  0  0  0  0  0  0  0  0
   17.0713   -1.8680   20.6180 C   0  0  0  0  0  0  0  0  0  0  0  0
   17.1466   -1.4402   22.0873 C   0  0  0  0  0  0  0  0  0  0  0  0
   17.3126   -0.7347   19.6311 C   0  0  0  0  0  0  0  0  0  0  0  0
   16.6439   -0.7201   18.3945 C   0  0  0  0  0  0  0  0  0  0  0  0
   16.9085    0.2830   17.4679 C   0  0  0  0  0  0  0  0  0  0  0  0
   17.8361    1.2529   17.8031 C   0  0  0  0  0  0  0  0  0  0  0  0
   18.5063    1.2779   18.9743 N   0  0  0  0  0  0  0  0  0  0  0  0
   18.2387    0.2807   19.8522 C   0  0  0  0  0  0  0  0  0  0  0  0
   15.1487   -4.6412   20.0876 C   0  0  0  0  0  0  0  0  0  0  0  0
   14.1498   -4.2765   19.1938 C   0  0  0  0  0  0  0  0  0  0  0  0
   13.8924    0.2815   15.8472 H   0  0  0  0  0  0  0  0  0  0  0  0
   12.1896    0.5263   16.2527 H   0  0  0  0  0  0  0  0  0  0  0  0
   13.2648   -0.3448   17.3688 H   0  0  0  0  0  0  0  0  0  0  0  0
   11.7555   -1.9322   16.0694 H   0  0  0  0  0  0  0  0  0  0  0  0
   13.2231   -0.8031   13.6334 H   0  0  0  0  0  0  0  0  0  0  0  0
   12.1424   -2.1986   13.6378 H   0  0  0  0  0  0  0  0  0  0  0  0
   11.5116   -0.5846   14.0234 H   0  0  0  0  0  0  0  0  0  0  0  0
   12.7115   -2.9635   17.5013 H   0  0  0  0  0  0  0  0  0  0  0  0
   16.0339   -4.0637   16.3512 H   0  0  0  0  0  0  0  0  0  0  0  0
   17.7910   -4.7060   17.9180 H   0  0  0  0  0  0  0  0  0  0  0  0
   18.4098   -5.0105   20.4842 H   0  0  0  0  0  0  0  0  0  0  0  0
   17.2440   -4.4322   21.6621 H   0  0  0  0  0  0  0  0  0  0  0  0
   18.3400   -2.8919   19.3941 H   0  0  0  0  0  0  0  0  0  0  0  0
   16.0402   -2.1907   20.4482 H   0  0  0  0  0  0  0  0  0  0  0  0
   16.4937   -0.5808   22.2773 H   0  0  0  0  0  0  0  0  0  0  0  0
   18.1626   -1.1599   22.3869 H   0  0  0  0  0  0  0  0  0  0  0  0
   16.8235   -2.2531   22.7471 H   0  0  0  0  0  0  0  0  0  0  0  0
   15.9241   -1.4927   18.1492 H   0  0  0  0  0  0  0  0  0  0  0  0
   16.4108    0.2986   16.5050 H   0  0  0  0  0  0  0  0  0  0  0  0
   18.0779    2.0570   17.1145 H   0  0  0  0  0  0  0  0  0  0  0  0
   18.8287    0.3240   20.7631 H   0  0  0  0  0  0  0  0  0  0  0  0
   14.9114   -4.6907   21.1487 H   0  0  0  0  0  0  0  0  0  0  0  0
   13.1496   -4.0856   19.5763 H   0  0  0  0  0  0  0  0  0  0  0  0
  1  2  1  0
  2  3  1  0
  2  4  1  0
  4  5  2  0
  4  6  1  0
  6  7  1  0
  7  8  2  0
  8  9  1  0
  9 10  2  0
 10 11  1  0
 11 12  1  0
 12 13  1  0
 13 14  1  0
 13 15  1  0
 15 16  2  0
 16 17  1  0
 17 18  2  0
 18 19  1  0
 19 20  2  0
 10 21  1  0
 21 22  2  0
 22  7  1  0
 20 15  1  0
  1 23  1  0
  1 24  1  0
  1 25  1  0
  2 26  1  0
  3 27  1  0
  3 28  1  0
  3 29  1  0
  6 30  1  0
  8 31  1  0
  9 32  1  0
 11 33  1  0
 11 34  1  0
 12 35  1  0
 13 36  1  0
 14 37  1  0
 14 38  1  0
 14 39  1  0
 16 40  1  0
 17 41  1  0
 18 42  1  0
 20 43  1  0
 21 44  1  0
 22 45  1  0
M  END
>  <Energy>  (177) 
47.853556080825506

>  <compound_id>  (177) 
62010

>  <target_id>  (177) 
1

>  <reference_id>  (177) 
93

>  <inspiration_ids>  (177) 
[93, 27]

>  <energy_score>  (177) 
-10.489130936994059

>  <distance_score>  (177) 
1.8806100878353191

>  <path>  (177) 
/opt/xchem-fragalysis-2/maxwin/BulkDock/SCRATCH/511021/C62010-P93/C62010-P93.minimised.mol

>  <scratch_subdir>  (177) 
/opt/xchem-fragalysis-2/maxwin/BulkDock/SCRATCH/511021/C62010-P93

>  <fragmenstein_runtime>  (177) 
8.027362823486328

>  <fragmenstein_outcome>  (177) 
too moved

>  <fragmenstein_mode>  (177) 
expansion

>  <fragmenstein_error>  (177) 


$$$$
C62010-P27
     RDKit          3D

 45 46  0  0  0  0  0  0  0  0999 V2000
   12.6944   -0.2087   16.2779 C   0  0  0  0  0  0  0  0  0  0  0  0
   12.5042   -1.5153   15.5183 C   0  0  0  0  0  0  0  0  0  0  0  0
   12.2855   -1.2354   14.0444 C   0  0  0  0  0  0  0  0  0  0  0  0
   13.7672   -2.3453   15.7223 C   0  0  0  0  0  0  0  0  0  0  0  0
   14.7006   -2.2700   15.0211 O   0  0  0  0  0  0  0  0  0  0  0  0
   13.5554   -3.1533   17.0378 N   0  0  0  0  0  0  0  0  0  0  0  0
   14.4416   -3.9212   17.7727 C   0  0  0  0  0  0  0  0  0  0  0  0
   15.7095   -4.2099   17.2741 C   0  0  0  0  0  0  0  0  0  0  0  0
   16.6911   -4.6778   18.1358 C   0  0  0  0  0  0  0  0  0  0  0  0
   16.3975   -4.8160   19.4990 C   0  0  0  0  0  0  0  0  0  0  0  0
   17.5127   -4.7352   20.4989 C   0  0  0  0  0  0  0  0  0  0  0  0
   18.0567   -3.3768   20.5344 N   0  0  0  0  0  0  0  0  0  0  0  0
   17.1898   -2.3368   21.0992 C   0  0  0  0  0  0  0  0  0  0  0  0
   18.0905   -1.4466   21.9681 C   0  0  0  0  0  0  0  0  0  0  0  0
   16.4602   -1.4528   20.0976 C   0  0  0  0  0  0  0  0  0  0  0  0
   16.9653   -1.0910   18.8393 C   0  0  0  0  0  0  0  0  0  0  0  0
   16.3074   -0.1398   18.0661 C   0  0  0  0  0  0  0  0  0  0  0  0
   15.1553    0.4297   18.5726 C   0  0  0  0  0  0  0  0  0  0  0  0
   14.5939    0.0768   19.7459 N   0  0  0  0  0  0  0  0  0  0  0  0
   15.2572   -0.8510   20.4771 C   0  0  0  0  0  0  0  0  0  0  0  0
   15.0779   -4.7170   19.9496 C   0  0  0  0  0  0  0  0  0  0  0  0
   14.0964   -4.2631   19.0803 C   0  0  0  0  0  0  0  0  0  0  0  0
   12.8288   -0.3998   17.3425 H   0  0  0  0  0  0  0  0  0  0  0  0
   13.5734    0.3378   15.9187 H   0  0  0  0  0  0  0  0  0  0  0  0
   11.8225    0.4415   16.1537 H   0  0  0  0  0  0  0  0  0  0  0  0
   11.6270   -2.0509   15.8975 H   0  0  0  0  0  0  0  0  0  0  0  0
   13.1313   -0.7003   13.5980 H   0  0  0  0  0  0  0  0  0  0  0  0
   12.1607   -2.1713   13.4888 H   0  0  0  0  0  0  0  0  0  0  0  0
   11.3902   -0.6243   13.8937 H   0  0  0  0  0  0  0  0  0  0  0  0
   12.6528   -2.9254   17.4332 H   0  0  0  0  0  0  0  0  0  0  0  0
   15.9743   -3.9820   16.2451 H   0  0  0  0  0  0  0  0  0  0  0  0
   17.7112   -4.7770   17.7733 H   0  0  0  0  0  0  0  0  0  0  0  0
   18.3085   -5.4305   20.2061 H   0  0  0  0  0  0  0  0  0  0  0  0
   17.1888   -5.0542   21.4968 H   0  0  0  0  0  0  0  0  0  0  0  0
   18.3978   -3.1149   19.6168 H   0  0  0  0  0  0  0  0  0  0  0  0
   16.4544   -2.7978   21.7715 H   0  0  0  0  0  0  0  0  0  0  0  0
   17.5060   -0.6743   22.4817 H   0  0  0  0  0  0  0  0  0  0  0  0
   18.8575   -0.9370   21.3722 H   0  0  0  0  0  0  0  0  0  0  0  0
   18.5990   -2.0369   22.7393 H   0  0  0  0  0  0  0  0  0  0  0  0
   17.8980   -1.4991   18.4646 H   0  0  0  0  0  0  0  0  0  0  0  0
   16.6986    0.1634   17.1015 H   0  0  0  0  0  0  0  0  0  0  0  0
   14.6327    1.2085   18.0258 H   0  0  0  0  0  0  0  0  0  0  0  0
   14.7863   -1.0835   21.4304 H   0  0  0  0  0  0  0  0  0  0  0  0
   14.8356   -4.8330   21.0034 H   0  0  0  0  0  0  0  0  0  0  0  0
   13.1040   -4.0581   19.4725 H   0  0  0  0  0  0  0  0  0  0  0  0
  1  2  1  0
  2  3  1  0
  2  4  1  0
  4  5  2  0
  4  6  1  0
  6  7  1  0
  7  8  2  0
  8  9  1  0
  9 10  2  0
 10 11  1  0
 11 12  1  0
 12 13  1  0
 13 14  1  0
 13 15  1  0
 15 16  2  0
 16 17  1  0
 17 18  2  0
 18 19  1  0
 19 20  2  0
 10 21  1  0
 21 22  2  0
 22  7  1  0
 20 15  1  0
  1 23  1  0
  1 24  1  0
  1 25  1  0
  2 26  1  0
  3 27  1  0
  3 28  1  0
  3 29  1  0
  6 30  1  0
  8 31  1  0
  9 32  1  0
 11 33  1  0
 11 34  1  0
 12 35  1  0
 13 36  1  0
 14 37  1  0
 14 38  1  0
 14 39  1  0
 16 40  1  0
 17 41  1  0
 18 42  1  0
 20 43  1  0
 21 44  1  0
 22 45  1  0
M  END
>  <Energy>  (178) 
42.89284946168798

>  <compound_id>  (178) 
62010

>  <target_id>  (178) 
1

>  <reference_id>  (178) 
27

>  <inspiration_ids>  (178) 
[93, 27]

>  <energy_score>  (178) 
-15.44983755613201

>  <distance_score>  (178) 
2.006904084266443

>  <path>  (178) 
/opt/xchem-fragalysis-2/maxwin/BulkDock/SCRATCH/511021/C62010-P27/C62010-P27.minimised.mol

>  <scratch_subdir>  (178) 
/opt/xchem-fragalysis-2/maxwin/BulkDock/SCRATCH/511021/C62010-P27

>  <fragmenstein_runtime>  (178) 
11.022149801254272

>  <fragmenstein_outcome>  (178) 
too moved

>  <fragmenstein_mode>  (178) 
expansion

>  <fragmenstein_error>  (178) 


$$$$
C62013-P93
     RDKit          3D

 48 49  0  0  0  0  0  0  0  0999 V2000
   11.8434    0.2238   15.5581 C   0  0  0  0  0  0  0  0  0  0  0  0
   11.3080   -0.9571   14.7666 C   0  0  0  0  0  0  0  0  0  0  0  0
   12.2947   -2.1115   14.6798 C   0  0  0  0  0  0  0  0  0  0  0  0
   12.3690   -2.9207   15.9759 C   0  0  0  0  0  0  0  0  0  0  0  0
   13.7809   -3.3893   16.2797 C   0  0  0  0  0  0  0  0  0  0  0  0
   14.6731   -3.2601   15.5373 O   0  0  0  0  0  0  0  0  0  0  0  0
   13.7536   -3.9303   17.7366 N   0  0  0  0  0  0  0  0  0  0  0  0
   14.7874   -4.3152   18.5705 C   0  0  0  0  0  0  0  0  0  0  0  0
   16.0667   -4.4946   18.0397 C   0  0  0  0  0  0  0  0  0  0  0  0
   17.1637   -4.5652   18.8842 C   0  0  0  0  0  0  0  0  0  0  0  0
   16.9704   -4.3969   20.2567 C   0  0  0  0  0  0  0  0  0  0  0  0
   18.1140   -3.9186   21.1148 C   0  0  0  0  0  0  0  0  0  0  0  0
   18.0105   -2.4827   21.4186 N   0  0  0  0  0  0  0  0  0  0  0  0
   18.3118   -1.5637   20.3056 C   0  0  0  0  0  0  0  0  0  0  0  0
   18.7973   -0.2466   20.9275 C   0  0  0  0  0  0  0  0  0  0  0  0
   17.1764   -1.2672   19.3344 C   0  0  0  0  0  0  0  0  0  0  0  0
   17.3780   -1.3883   17.9486 C   0  0  0  0  0  0  0  0  0  0  0  0
   16.3673   -1.0777   17.0514 C   0  0  0  0  0  0  0  0  0  0  0  0
   15.1655   -0.6416   17.5657 C   0  0  0  0  0  0  0  0  0  0  0  0
   14.9053   -0.4931   18.8810 N   0  0  0  0  0  0  0  0  0  0  0  0
   15.9187   -0.8120   19.7316 C   0  0  0  0  0  0  0  0  0  0  0  0
   15.6697   -4.4191   20.7887 C   0  0  0  0  0  0  0  0  0  0  0  0
   14.5682   -4.3813   19.9404 C   0  0  0  0  0  0  0  0  0  0  0  0
   11.0845    1.0092   15.6293 H   0  0  0  0  0  0  0  0  0  0  0  0
   12.1272   -0.0719   16.5667 H   0  0  0  0  0  0  0  0  0  0  0  0
   12.7258    0.6510   15.0705 H   0  0  0  0  0  0  0  0  0  0  0  0
   11.1222   -0.5799   13.7570 H   0  0  0  0  0  0  0  0  0  0  0  0
   10.3531   -1.2926   15.1859 H   0  0  0  0  0  0  0  0  0  0  0  0
   13.2708   -1.7139   14.3791 H   0  0  0  0  0  0  0  0  0  0  0  0
   11.9792   -2.7855   13.8738 H   0  0  0  0  0  0  0  0  0  0  0  0
   12.0568   -2.2973   16.8131 H   0  0  0  0  0  0  0  0  0  0  0  0
   11.7063   -3.7904   15.9228 H   0  0  0  0  0  0  0  0  0  0  0  0
   12.8191   -3.8273   18.1195 H   0  0  0  0  0  0  0  0  0  0  0  0
   16.2364   -4.4770   16.9665 H   0  0  0  0  0  0  0  0  0  0  0  0
   18.1628   -4.5771   18.4571 H   0  0  0  0  0  0  0  0  0  0  0  0
   19.0832   -4.1503   20.6569 H   0  0  0  0  0  0  0  0  0  0  0  0
   18.0936   -4.4740   22.0603 H   0  0  0  0  0  0  0  0  0  0  0  0
   17.0905   -2.2798   21.8016 H   0  0  0  0  0  0  0  0  0  0  0  0
   19.1636   -1.9705   19.7445 H   0  0  0  0  0  0  0  0  0  0  0  0
   18.0242    0.2281   21.5432 H   0  0  0  0  0  0  0  0  0  0  0  0
   19.6744   -0.4147   21.5633 H   0  0  0  0  0  0  0  0  0  0  0  0
   19.0875    0.4699   20.1502 H   0  0  0  0  0  0  0  0  0  0  0  0
   18.3342   -1.7333   17.5624 H   0  0  0  0  0  0  0  0  0  0  0  0
   16.5075   -1.1881   15.9820 H   0  0  0  0  0  0  0  0  0  0  0  0
   14.3546   -0.3798   16.8978 H   0  0  0  0  0  0  0  0  0  0  0  0
   15.6749   -0.6765   20.7818 H   0  0  0  0  0  0  0  0  0  0  0  0
   15.5117   -4.3156   21.8602 H   0  0  0  0  0  0  0  0  0  0  0  0
   13.5729   -4.2584   20.3614 H   0  0  0  0  0  0  0  0  0  0  0  0
  1  2  1  0
  2  3  1  0
  3  4  1  0
  4  5  1  0
  5  6  2  0
  5  7  1  0
  7  8  1  0
  8  9  2  0
  9 10  1  0
 10 11  2  0
 11 12  1  0
 12 13  1  0
 13 14  1  0
 14 15  1  0
 14 16  1  0
 16 17  2  0
 17 18  1  0
 18 19  2  0
 19 20  1  0
 20 21  2  0
 11 22  1  0
 22 23  2  0
 23  8  1  0
 21 16  1  0
  1 24  1  0
  1 25  1  0
  1 26  1  0
  2 27  1  0
  2 28  1  0
  3 29  1  0
  3 30  1  0
  4 31  1  0
  4 32  1  0
  7 33  1  0
  9 34  1  0
 10 35  1  0
 12 36  1  0
 12 37  1  0
 13 38  1  0
 14 39  1  0
 15 40  1  0
 15 41  1  0
 15 42  1  0
 17 43  1  0
 18 44  1  0
 19 45  1  0
 21 46  1  0
 22 47  1  0
 23 48  1  0
M  END
>  <Energy>  (179) 
39.495606430810675

>  <compound_id>  (179) 
62013

>  <target_id>  (179) 
1

>  <reference_id>  (179) 
93

>  <inspiration_ids>  (179) 
[93, 27]

>  <energy_score>  (179) 
-29.829695950986377

>  <distance_score>  (179) 
1.864394131004253

>  <path>  (179) 
/opt/xchem-fragalysis-2/maxwin/BulkDock/SCRATCH/511021/C62013-P93/C62013-P93.minimised.mol

>  <scratch_subdir>  (179) 
/opt/xchem-fragalysis-2/maxwin/BulkDock/SCRATCH/511021/C62013-P93

>  <fragmenstein_runtime>  (179) 
6.03424072265625

>  <fragmenstein_outcome>  (179) 
too moved

>  <fragmenstein_mode>  (179) 
expansion

>  <fragmenstein_error>  (179) 


$$$$
C62013-P27
     RDKit          3D

 48 49  0  0  0  0  0  0  0  0999 V2000
   11.6820    0.2955   15.5543 C   0  0  0  0  0  0  0  0  0  0  0  0
   11.1984   -0.9531   14.8327 C   0  0  0  0  0  0  0  0  0  0  0  0
   12.2360   -2.0629   14.8261 C   0  0  0  0  0  0  0  0  0  0  0  0
   12.3062   -2.8065   16.1615 C   0  0  0  0  0  0  0  0  0  0  0  0
   13.6969   -3.3436   16.4355 C   0  0  0  0  0  0  0  0  0  0  0  0
   14.5856   -3.2121   15.6907 O   0  0  0  0  0  0  0  0  0  0  0  0
   13.6608   -3.9619   17.8580 N   0  0  0  0  0  0  0  0  0  0  0  0
   14.6842   -4.4366   18.6557 C   0  0  0  0  0  0  0  0  0  0  0  0
   15.9540   -4.6100   18.0984 C   0  0  0  0  0  0  0  0  0  0  0  0
   17.0648   -4.7081   18.9205 C   0  0  0  0  0  0  0  0  0  0  0  0
   16.8940   -4.5731   20.2989 C   0  0  0  0  0  0  0  0  0  0  0  0
   18.0516   -4.1119   21.1466 C   0  0  0  0  0  0  0  0  0  0  0  0
   17.9688   -2.6746   21.4505 N   0  0  0  0  0  0  0  0  0  0  0  0
   18.2800   -1.7619   20.3347 C   0  0  0  0  0  0  0  0  0  0  0  0
   18.8333   -0.4702   20.9535 C   0  0  0  0  0  0  0  0  0  0  0  0
   17.1351   -1.4089   19.3930 C   0  0  0  0  0  0  0  0  0  0  0  0
   17.3100   -1.4908   18.0005 C   0  0  0  0  0  0  0  0  0  0  0  0
   16.2998   -1.1052   17.1313 C   0  0  0  0  0  0  0  0  0  0  0  0
   15.1223   -0.6416   17.6786 C   0  0  0  0  0  0  0  0  0  0  0  0
   14.8884   -0.5352   19.0024 N   0  0  0  0  0  0  0  0  0  0  0  0
   15.9009   -0.9227   19.8250 C   0  0  0  0  0  0  0  0  0  0  0  0
   15.6015   -4.6089   20.8516 C   0  0  0  0  0  0  0  0  0  0  0  0
   14.4844   -4.5495   20.0239 C   0  0  0  0  0  0  0  0  0  0  0  0
   10.8834    1.0427   15.5967 H   0  0  0  0  0  0  0  0  0  0  0  0
   12.0020    0.0739   16.5721 H   0  0  0  0  0  0  0  0  0  0  0  0
   12.5323    0.7417   15.0277 H   0  0  0  0  0  0  0  0  0  0  0  0
   11.0053   -0.6491   13.8008 H   0  0  0  0  0  0  0  0  0  0  0  0
   10.2548   -1.3034   15.2648 H   0  0  0  0  0  0  0  0  0  0  0  0
   13.2039   -1.6363   14.5383 H   0  0  0  0  0  0  0  0  0  0  0  0
   11.9765   -2.7870   14.0435 H   0  0  0  0  0  0  0  0  0  0  0  0
   12.0693   -2.1267   16.9809 H   0  0  0  0  0  0  0  0  0  0  0  0
   11.5915   -3.6355   16.1671 H   0  0  0  0  0  0  0  0  0  0  0  0
   12.7003   -3.9901   18.1923 H   0  0  0  0  0  0  0  0  0  0  0  0
   16.1076   -4.5580   17.0239 H   0  0  0  0  0  0  0  0  0  0  0  0
   18.0562   -4.7099   18.4759 H   0  0  0  0  0  0  0  0  0  0  0  0
   19.0133   -4.3577   20.6804 H   0  0  0  0  0  0  0  0  0  0  0  0
   18.0322   -4.6665   22.0927 H   0  0  0  0  0  0  0  0  0  0  0  0
   17.0517   -2.4598   21.8335 H   0  0  0  0  0  0  0  0  0  0  0  0
   19.1004   -2.1980   19.7495 H   0  0  0  0  0  0  0  0  0  0  0  0
   18.0941    0.0313   21.5895 H   0  0  0  0  0  0  0  0  0  0  0  0
   19.7168   -0.6786   21.5681 H   0  0  0  0  0  0  0  0  0  0  0  0
   19.1353    0.2395   20.1744 H   0  0  0  0  0  0  0  0  0  0  0  0
   18.2463   -1.8569   17.5864 H   0  0  0  0  0  0  0  0  0  0  0  0
   16.4211   -1.1806   16.0565 H   0  0  0  0  0  0  0  0  0  0  0  0
   14.3093   -0.3230   17.0360 H   0  0  0  0  0  0  0  0  0  0  0  0
   15.6778   -0.8120   20.8826 H   0  0  0  0  0  0  0  0  0  0  0  0
   15.4625   -4.5297   21.9278 H   0  0  0  0  0  0  0  0  0  0  0  0
   13.4971   -4.4241   20.4623 H   0  0  0  0  0  0  0  0  0  0  0  0
  1  2  1  0
  2  3  1  0
  3  4  1  0
  4  5  1  0
  5  6  2  0
  5  7  1  0
  7  8  1  0
  8  9  2  0
  9 10  1  0
 10 11  2  0
 11 12  1  0
 12 13  1  0
 13 14  1  0
 14 15  1  0
 14 16  1  0
 16 17  2  0
 17 18  1  0
 18 19  2  0
 19 20  1  0
 20 21  2  0
 11 22  1  0
 22 23  2  0
 23  8  1  0
 21 16  1  0
  1 24  1  0
  1 25  1  0
  1 26  1  0
  2 27  1  0
  2 28  1  0
  3 29  1  0
  3 30  1  0
  4 31  1  0
  4 32  1  0
  7 33  1  0
  9 34  1  0
 10 35  1  0
 12 36  1  0
 12 37  1  0
 13 38  1  0
 14 39  1  0
 15 40  1  0
 15 41  1  0
 15 42  1  0
 17 43  1  0
 18 44  1  0
 19 45  1  0
 21 46  1  0
 22 47  1  0
 23 48  1  0
M  END
>  <Energy>  (180) 
40.890412118873371

>  <compound_id>  (180) 
62013

>  <target_id>  (180) 
1

>  <reference_id>  (180) 
27

>  <inspiration_ids>  (180) 
[93, 27]

>  <energy_score>  (180) 
-28.434890262925165

>  <distance_score>  (180) 
1.8422028410891593

>  <path>  (180) 
/opt/xchem-fragalysis-2/maxwin/BulkDock/SCRATCH/511021/C62013-P27/C62013-P27.minimised.mol

>  <scratch_subdir>  (180) 
/opt/xchem-fragalysis-2/maxwin/BulkDock/SCRATCH/511021/C62013-P27

>  <fragmenstein_runtime>  (180) 
6.483316421508789

>  <fragmenstein_outcome>  (180) 
too moved

>  <fragmenstein_mode>  (180) 
expansion

>  <fragmenstein_error>  (180) 


$$$$
C62016-P93
     RDKit          3D

 30 30  0  0  0  0  0  0  0  0999 V2000
   13.6202    1.4012   16.5116 C   0  0  0  0  0  0  0  0  0  0  0  0
   14.7163    0.7699   15.8059 N   0  0  0  0  0  0  0  0  0  0  0  0
   14.9983   -0.6244   16.2378 C   0  0  0  0  0  0  0  0  0  0  0  0
   16.3209   -1.0430   15.5835 C   0  0  0  0  0  0  0  0  0  0  0  0
   13.9130   -1.6342   15.9087 C   0  0  0  0  0  0  0  0  0  0  0  0
   13.3173   -1.4867   14.6429 C   0  0  0  0  0  0  0  0  0  0  0  0
   12.2061   -2.2183   14.2635 C   0  0  0  0  0  0  0  0  0  0  0  0
   11.6540   -3.1425   15.1158 C   0  0  0  0  0  0  0  0  0  0  0  0
   12.2865   -3.3938   16.3128 C   0  0  0  0  0  0  0  0  0  0  0  0
   13.4286   -2.6754   16.7272 C   0  0  0  0  0  0  0  0  0  0  0  0
   13.9108   -3.2248   17.9222 N   0  0  0  0  0  0  0  0  0  0  0  0
   15.2965   -3.0457   18.6408 C   0  0  0  0  0  0  0  0  0  0  0  0
   16.2048   -2.3523   18.3766 O   0  0  0  0  0  0  0  0  0  0  0  0
   15.2557   -4.1089   19.7769 C   0  0  0  0  0  0  0  0  0  0  0  0
   14.9596   -5.3460   19.2666 F   0  0  0  0  0  0  0  0  0  0  0  0
   16.4052   -4.2552   20.4783 F   0  0  0  0  0  0  0  0  0  0  0  0
   14.2542   -3.8654   20.6674 F   0  0  0  0  0  0  0  0  0  0  0  0
   13.5440    2.4487   16.2034 H   0  0  0  0  0  0  0  0  0  0  0  0
   13.7857    1.3929   17.5938 H   0  0  0  0  0  0  0  0  0  0  0  0
   12.6606    0.9232   16.2943 H   0  0  0  0  0  0  0  0  0  0  0  0
   14.5993    0.8343   14.8009 H   0  0  0  0  0  0  0  0  0  0  0  0
   15.1320   -0.5822   17.3211 H   0  0  0  0  0  0  0  0  0  0  0  0
   17.1399   -0.3927   15.9111 H   0  0  0  0  0  0  0  0  0  0  0  0
   16.2700   -0.9892   14.4892 H   0  0  0  0  0  0  0  0  0  0  0  0
   16.5889   -2.0736   15.8395 H   0  0  0  0  0  0  0  0  0  0  0  0
   13.6974   -0.7672   13.9221 H   0  0  0  0  0  0  0  0  0  0  0  0
   11.7697   -2.0529   13.2864 H   0  0  0  0  0  0  0  0  0  0  0  0
   10.7775   -3.7084   14.8199 H   0  0  0  0  0  0  0  0  0  0  0  0
   11.8968   -4.2194   16.9067 H   0  0  0  0  0  0  0  0  0  0  0  0
   13.3217   -3.8524   18.4683 H   0  0  0  0  0  0  0  0  0  0  0  0
  1  2  1  0
  2  3  1  0
  3  4  1  0
  3  5  1  0
  5  6  2  0
  6  7  1  0
  7  8  2  0
  8  9  1  0
  9 10  2  0
 10 11  1  0
 11 12  1  0
 12 13  2  0
 12 14  1  0
 14 15  1  0
 14 16  1  0
 14 17  1  0
 10  5  1  0
  1 18  1  0
  1 19  1  0
  1 20  1  0
  2 21  1  0
  3 22  1  0
  4 23  1  0
  4 24  1  0
  4 25  1  0
  6 26  1  0
  7 27  1  0
  8 28  1  0
  9 29  1  0
 11 30  1  0
M  END
>  <Energy>  (181) 
118.60222475730714

>  <compound_id>  (181) 
62016

>  <target_id>  (181) 
1

>  <reference_id>  (181) 
93

>  <inspiration_ids>  (181) 
[93, 27]

>  <energy_score>  (181) 
-28.912943706236945

>  <distance_score>  (181) 
2.3676255721694783

>  <path>  (181) 
/opt/xchem-fragalysis-2/maxwin/BulkDock/SCRATCH/511021/C62016-P93/C62016-P93.minimised.mol

>  <scratch_subdir>  (181) 
/opt/xchem-fragalysis-2/maxwin/BulkDock/SCRATCH/511021/C62016-P93

>  <fragmenstein_runtime>  (181) 
3.0868539810180664

>  <fragmenstein_outcome>  (181) 
too moved

>  <fragmenstein_mode>  (181) 
expansion

>  <fragmenstein_error>  (181) 


$$$$
C62016-P27
     RDKit          3D

 30 30  0  0  0  0  0  0  0  0999 V2000
   13.5955    1.4093   16.5704 C   0  0  0  0  0  0  0  0  0  0  0  0
   14.6663    0.7937   15.8111 N   0  0  0  0  0  0  0  0  0  0  0  0
   14.9561   -0.6107   16.2031 C   0  0  0  0  0  0  0  0  0  0  0  0
   16.2561   -1.0201   15.4993 C   0  0  0  0  0  0  0  0  0  0  0  0
   13.8532   -1.6039   15.8835 C   0  0  0  0  0  0  0  0  0  0  0  0
   13.2446   -1.4457   14.6247 C   0  0  0  0  0  0  0  0  0  0  0  0
   12.1241   -2.1681   14.2529 C   0  0  0  0  0  0  0  0  0  0  0  0
   11.5706   -3.0878   15.1092 C   0  0  0  0  0  0  0  0  0  0  0  0
   12.2056   -3.3374   16.3057 C   0  0  0  0  0  0  0  0  0  0  0  0
   13.3629   -2.6373   16.7066 C   0  0  0  0  0  0  0  0  0  0  0  0
   13.8711   -3.2157   17.8761 N   0  0  0  0  0  0  0  0  0  0  0  0
   15.2873   -3.0887   18.5443 C   0  0  0  0  0  0  0  0  0  0  0  0
   16.2068   -2.4207   18.2541 O   0  0  0  0  0  0  0  0  0  0  0  0
   15.2572   -4.1629   19.6690 C   0  0  0  0  0  0  0  0  0  0  0  0
   15.0743   -5.4094   19.1289 F   0  0  0  0  0  0  0  0  0  0  0  0
   16.3735   -4.2402   20.4328 F   0  0  0  0  0  0  0  0  0  0  0  0
   14.1953   -3.9959   20.5087 F   0  0  0  0  0  0  0  0  0  0  0  0
   13.5073    2.4627   16.2865 H   0  0  0  0  0  0  0  0  0  0  0  0
   13.8005    1.3788   17.6455 H   0  0  0  0  0  0  0  0  0  0  0  0
   12.6287    0.9342   16.3797 H   0  0  0  0  0  0  0  0  0  0  0  0
   14.5045    0.8765   14.8137 H   0  0  0  0  0  0  0  0  0  0  0  0
   15.1250   -0.5952   17.2824 H   0  0  0  0  0  0  0  0  0  0  0  0
   17.0887   -0.3837   15.8199 H   0  0  0  0  0  0  0  0  0  0  0  0
   16.1746   -0.9371   14.4087 H   0  0  0  0  0  0  0  0  0  0  0  0
   16.5241   -2.0587   15.7205 H   0  0  0  0  0  0  0  0  0  0  0  0
   13.6251   -0.7274   13.9028 H   0  0  0  0  0  0  0  0  0  0  0  0
   11.6795   -1.9976   13.2803 H   0  0  0  0  0  0  0  0  0  0  0  0
   10.6922   -3.6526   14.8172 H   0  0  0  0  0  0  0  0  0  0  0  0
   11.8142   -4.1596   16.9019 H   0  0  0  0  0  0  0  0  0  0  0  0
   13.2826   -3.8317   18.4371 H   0  0  0  0  0  0  0  0  0  0  0  0
  1  2  1  0
  2  3  1  0
  3  4  1  0
  3  5  1  0
  5  6  2  0
  6  7  1  0
  7  8  2  0
  8  9  1  0
  9 10  2  0
 10 11  1  0
 11 12  1  0
 12 13  2  0
 12 14  1  0
 14 15  1  0
 14 16  1  0
 14 17  1  0
 10  5  1  0
  1 18  1  0
  1 19  1  0
  1 20  1  0
  2 21  1  0
  3 22  1  0
  4 23  1  0
  4 24  1  0
  4 25  1  0
  6 26  1  0
  7 27  1  0
  8 28  1  0
  9 29  1  0
 11 30  1  0
M  END
>  <Energy>  (182) 
118.35325157029931

>  <compound_id>  (182) 
62016

>  <target_id>  (182) 
1

>  <reference_id>  (182) 
27

>  <inspiration_ids>  (182) 
[93, 27]

>  <energy_score>  (182) 
-29.16191689324603

>  <distance_score>  (182) 
2.382977895895219

>  <path>  (182) 
/opt/xchem-fragalysis-2/maxwin/BulkDock/SCRATCH/511021/C62016-P27/C62016-P27.minimised.mol

>  <scratch_subdir>  (182) 
/opt/xchem-fragalysis-2/maxwin/BulkDock/SCRATCH/511021/C62016-P27

>  <fragmenstein_runtime>  (182) 
2.4835338592529297

>  <fragmenstein_outcome>  (182) 
too moved

>  <fragmenstein_mode>  (182) 
expansion

>  <fragmenstein_error>  (182) 


$$$$
C62017-P93
     RDKit          3D

 42 42  0  0  0  0  0  0  0  0999 V2000
   16.5722   -0.3804   16.9015 C   0  0  0  0  0  0  0  0  0  0  0  0
   15.6303    0.7893   16.6654 C   0  0  0  0  0  0  0  0  0  0  0  0
   14.3049    0.4025   16.0051 C   0  0  0  0  0  0  0  0  0  0  0  0
   13.4604   -0.5684   16.8288 C   0  0  0  0  0  0  0  0  0  0  0  0
   13.3009   -1.9611   16.2241 C   0  0  0  0  0  0  0  0  0  0  0  0
   14.5670   -2.7993   16.2450 C   0  0  0  0  0  0  0  0  0  0  0  0
   15.1938   -2.9989   15.2782 O   0  0  0  0  0  0  0  0  0  0  0  0
   14.7927   -3.2777   17.7113 N   0  0  0  0  0  0  0  0  0  0  0  0
   15.7478   -4.1444   18.2444 C   0  0  0  0  0  0  0  0  0  0  0  0
   16.7436   -4.6614   17.4143 C   0  0  0  0  0  0  0  0  0  0  0  0
   17.6880   -5.5551   17.9146 C   0  0  0  0  0  0  0  0  0  0  0  0
   17.6470   -5.9379   19.2495 C   0  0  0  0  0  0  0  0  0  0  0  0
   16.6747   -5.4084   20.0931 C   0  0  0  0  0  0  0  0  0  0  0  0
   15.7211   -4.4912   19.6129 C   0  0  0  0  0  0  0  0  0  0  0  0
   14.7513   -3.9030   20.6271 C   0  0  0  0  0  0  0  0  0  0  0  0
   13.3920   -4.5873   20.5397 C   0  0  0  0  0  0  0  0  0  0  0  0
   14.6387   -2.4407   20.4610 N   0  0  0  0  0  0  0  0  0  0  0  0
   14.8205   -1.7583   21.7446 C   0  0  0  0  0  0  0  0  0  0  0  0
   16.2034   -1.0366   17.6903 H   0  0  0  0  0  0  0  0  0  0  0  0
   16.7388   -0.9517   15.9850 H   0  0  0  0  0  0  0  0  0  0  0  0
   17.5458   -0.0046   17.2347 H   0  0  0  0  0  0  0  0  0  0  0  0
   16.1349    1.5209   16.0228 H   0  0  0  0  0  0  0  0  0  0  0  0
   15.4351    1.2932   17.6196 H   0  0  0  0  0  0  0  0  0  0  0  0
   14.4966    0.0014   15.0028 H   0  0  0  0  0  0  0  0  0  0  0  0
   13.7313    1.3270   15.8600 H   0  0  0  0  0  0  0  0  0  0  0  0
   12.4519   -0.1477   16.8601 H   0  0  0  0  0  0  0  0  0  0  0  0
   13.8204   -0.6205   17.8604 H   0  0  0  0  0  0  0  0  0  0  0  0
   12.5175   -2.5133   16.7561 H   0  0  0  0  0  0  0  0  0  0  0  0
   12.9590   -1.8861   15.1844 H   0  0  0  0  0  0  0  0  0  0  0  0
   14.0079   -2.9880   18.2880 H   0  0  0  0  0  0  0  0  0  0  0  0
   16.7997   -4.3904   16.3629 H   0  0  0  0  0  0  0  0  0  0  0  0
   18.4528   -5.9579   17.2551 H   0  0  0  0  0  0  0  0  0  0  0  0
   18.3799   -6.6420   19.6352 H   0  0  0  0  0  0  0  0  0  0  0  0
   16.6779   -5.7074   21.1396 H   0  0  0  0  0  0  0  0  0  0  0  0
   15.1556   -4.1179   21.6261 H   0  0  0  0  0  0  0  0  0  0  0  0
   13.4859   -5.6559   20.7617 H   0  0  0  0  0  0  0  0  0  0  0  0
   12.6901   -4.1686   21.2666 H   0  0  0  0  0  0  0  0  0  0  0  0
   12.9552   -4.5026   19.5413 H   0  0  0  0  0  0  0  0  0  0  0  0
   15.4086   -2.1236   19.8664 H   0  0  0  0  0  0  0  0  0  0  0  0
   15.8557   -1.8514   22.0907 H   0  0  0  0  0  0  0  0  0  0  0  0
   14.1610   -2.1556   22.5215 H   0  0  0  0  0  0  0  0  0  0  0  0
   14.6023   -0.6931   21.6226 H   0  0  0  0  0  0  0  0  0  0  0  0
  1  2  1  0
  2  3  1  0
  3  4  1  0
  4  5  1  0
  5  6  1  0
  6  7  2  0
  6  8  1  0
  8  9  1  0
  9 10  2  0
 10 11  1  0
 11 12  2  0
 12 13  1  0
 13 14  2  0
 14 15  1  0
 15 16  1  0
 15 17  1  0
 17 18  1  0
 14  9  1  0
  1 19  1  0
  1 20  1  0
  1 21  1  0
  2 22  1  0
  2 23  1  0
  3 24  1  0
  3 25  1  0
  4 26  1  0
  4 27  1  0
  5 28  1  0
  5 29  1  0
  8 30  1  0
 10 31  1  0
 11 32  1  0
 12 33  1  0
 13 34  1  0
 15 35  1  0
 16 36  1  0
 16 37  1  0
 16 38  1  0
 17 39  1  0
 18 40  1  0
 18 41  1  0
 18 42  1  0
M  END
>  <Energy>  (183) 
23.566649164782692

>  <compound_id>  (183) 
62017

>  <target_id>  (183) 
1

>  <reference_id>  (183) 
93

>  <inspiration_ids>  (183) 
[93, 27]

>  <energy_score>  (183) 
-27.907119497055817

>  <distance_score>  (183) 
1.3807900874537646

>  <path>  (183) 
/opt/xchem-fragalysis-2/maxwin/BulkDock/SCRATCH/511021/C62017-P93/C62017-P93.minimised.mol

>  <scratch_subdir>  (183) 
/opt/xchem-fragalysis-2/maxwin/BulkDock/SCRATCH/511021/C62017-P93

>  <fragmenstein_runtime>  (183) 
4.188995838165283

>  <fragmenstein_outcome>  (183) 
too moved

>  <fragmenstein_mode>  (183) 
expansion

>  <fragmenstein_error>  (183) 


$$$$
C62017-P27
     RDKit          3D

 42 42  0  0  0  0  0  0  0  0999 V2000
   16.5878   -0.3988   16.9718 C   0  0  0  0  0  0  0  0  0  0  0  0
   15.6798    0.8055   16.7776 C   0  0  0  0  0  0  0  0  0  0  0  0
   14.3195    0.4714   16.1598 C   0  0  0  0  0  0  0  0  0  0  0  0
   13.4605   -0.4532   17.0222 C   0  0  0  0  0  0  0  0  0  0  0  0
   13.2068   -1.8344   16.4247 C   0  0  0  0  0  0  0  0  0  0  0  0
   14.4453   -2.7099   16.3844 C   0  0  0  0  0  0  0  0  0  0  0  0
   15.0766   -2.8430   15.4091 O   0  0  0  0  0  0  0  0  0  0  0  0
   14.6616   -3.2908   17.8141 N   0  0  0  0  0  0  0  0  0  0  0  0
   15.6100   -4.1951   18.2892 C   0  0  0  0  0  0  0  0  0  0  0  0
   16.5475   -4.7367   17.4083 C   0  0  0  0  0  0  0  0  0  0  0  0
   17.4989   -5.6485   17.8608 C   0  0  0  0  0  0  0  0  0  0  0  0
   17.5192   -6.0293   19.1966 C   0  0  0  0  0  0  0  0  0  0  0  0
   16.5983   -5.4845   20.0869 C   0  0  0  0  0  0  0  0  0  0  0  0
   15.6395   -4.5488   19.6549 C   0  0  0  0  0  0  0  0  0  0  0  0
   14.7177   -3.9584   20.7118 C   0  0  0  0  0  0  0  0  0  0  0  0
   13.3553   -4.6405   20.6774 C   0  0  0  0  0  0  0  0  0  0  0  0
   14.6000   -2.4950   20.5564 N   0  0  0  0  0  0  0  0  0  0  0  0
   14.6176   -1.8360   21.8645 C   0  0  0  0  0  0  0  0  0  0  0  0
   16.2077   -1.0681   17.7446 H   0  0  0  0  0  0  0  0  0  0  0  0
   16.7289   -0.9468   16.0371 H   0  0  0  0  0  0  0  0  0  0  0  0
   17.5757   -0.0616   17.3043 H   0  0  0  0  0  0  0  0  0  0  0  0
   16.1885    1.5246   16.1243 H   0  0  0  0  0  0  0  0  0  0  0  0
   15.5346    1.3071   17.7418 H   0  0  0  0  0  0  0  0  0  0  0  0
   14.4624    0.0547   15.1559 H   0  0  0  0  0  0  0  0  0  0  0  0
   13.7820    1.4188   16.0236 H   0  0  0  0  0  0  0  0  0  0  0  0
   12.4814    0.0241   17.1004 H   0  0  0  0  0  0  0  0  0  0  0  0
   13.8584   -0.5291   18.0393 H   0  0  0  0  0  0  0  0  0  0  0  0
   12.4304   -2.3565   16.9942 H   0  0  0  0  0  0  0  0  0  0  0  0
   12.8181   -1.7447   15.4029 H   0  0  0  0  0  0  0  0  0  0  0  0
   13.9648   -2.9048   18.4476 H   0  0  0  0  0  0  0  0  0  0  0  0
   16.5545   -4.4666   16.3553 H   0  0  0  0  0  0  0  0  0  0  0  0
   18.2200   -6.0667   17.1631 H   0  0  0  0  0  0  0  0  0  0  0  0
   18.2572   -6.7475   19.5450 H   0  0  0  0  0  0  0  0  0  0  0  0
   16.6446   -5.7879   21.1309 H   0  0  0  0  0  0  0  0  0  0  0  0
   15.1702   -4.1707   21.6905 H   0  0  0  0  0  0  0  0  0  0  0  0
   13.4494   -5.7012   20.9372 H   0  0  0  0  0  0  0  0  0  0  0  0
   12.6639   -4.1878   21.3948 H   0  0  0  0  0  0  0  0  0  0  0  0
   12.9079   -4.5947   19.6818 H   0  0  0  0  0  0  0  0  0  0  0  0
   15.4325   -2.1618   20.0629 H   0  0  0  0  0  0  0  0  0  0  0  0
   15.6076   -1.9166   22.3267 H   0  0  0  0  0  0  0  0  0  0  0  0
   13.8829   -2.2646   22.5519 H   0  0  0  0  0  0  0  0  0  0  0  0
   14.3950   -0.7723   21.7383 H   0  0  0  0  0  0  0  0  0  0  0  0
  1  2  1  0
  2  3  1  0
  3  4  1  0
  4  5  1  0
  5  6  1  0
  6  7  2  0
  6  8  1  0
  8  9  1  0
  9 10  2  0
 10 11  1  0
 11 12  2  0
 12 13  1  0
 13 14  2  0
 14 15  1  0
 15 16  1  0
 15 17  1  0
 17 18  1  0
 14  9  1  0
  1 19  1  0
  1 20  1  0
  1 21  1  0
  2 22  1  0
  2 23  1  0
  3 24  1  0
  3 25  1  0
  4 26  1  0
  4 27  1  0
  5 28  1  0
  5 29  1  0
  8 30  1  0
 10 31  1  0
 11 32  1  0
 12 33  1  0
 13 34  1  0
 15 35  1  0
 16 36  1  0
 16 37  1  0
 16 38  1  0
 17 39  1  0
 18 40  1  0
 18 41  1  0
 18 42  1  0
M  END
>  <Energy>  (184) 
21.977951790407172

>  <compound_id>  (184) 
62017

>  <target_id>  (184) 
1

>  <reference_id>  (184) 
27

>  <inspiration_ids>  (184) 
[93, 27]

>  <energy_score>  (184) 
-29.495816871431753

>  <distance_score>  (184) 
1.35004790154048

>  <path>  (184) 
/opt/xchem-fragalysis-2/maxwin/BulkDock/SCRATCH/511021/C62017-P27/C62017-P27.minimised.mol

>  <scratch_subdir>  (184) 
/opt/xchem-fragalysis-2/maxwin/BulkDock/SCRATCH/511021/C62017-P27

>  <fragmenstein_runtime>  (184) 
4.117276906967163

>  <fragmenstein_outcome>  (184) 
too moved

>  <fragmenstein_mode>  (184) 
expansion

>  <fragmenstein_error>  (184) 


$$$$
C62018-P93
     RDKit          3D

 31 31  0  0  0  0  0  0  0  0999 V2000
   16.9374   -4.3109   20.4253 C   0  0  0  0  0  0  0  0  0  0  0  0
   16.5385   -3.4653   19.4636 C   0  0  0  0  0  0  0  0  0  0  0  0
   15.2874   -3.7815   18.7140 C   0  0  0  0  0  0  0  0  0  0  0  0
   14.6682   -4.7480   18.9458 O   0  0  0  0  0  0  0  0  0  0  0  0
   15.0204   -2.6299   17.6954 N   0  0  0  0  0  0  0  0  0  0  0  0
   14.0222   -2.4896   16.7244 C   0  0  0  0  0  0  0  0  0  0  0  0
   12.9985   -3.4530   16.7884 C   0  0  0  0  0  0  0  0  0  0  0  0
   11.9595   -3.4869   15.8846 C   0  0  0  0  0  0  0  0  0  0  0  0
   11.9205   -2.5572   14.8788 C   0  0  0  0  0  0  0  0  0  0  0  0
   12.9123   -1.5911   14.7897 C   0  0  0  0  0  0  0  0  0  0  0  0
   13.9798   -1.5011   15.7135 C   0  0  0  0  0  0  0  0  0  0  0  0
   14.9645   -0.3780   15.3821 C   0  0  0  0  0  0  0  0  0  0  0  0
   16.3006   -0.3195   16.1268 C   0  0  0  0  0  0  0  0  0  0  0  0
   14.3368    0.9667   15.3362 N   0  0  0  0  0  0  0  0  0  0  0  0
   13.9353    1.4915   16.6298 C   0  0  0  0  0  0  0  0  0  0  0  0
   16.3757   -5.2081   20.6738 H   0  0  0  0  0  0  0  0  0  0  0  0
   17.8407   -4.1183   20.9941 H   0  0  0  0  0  0  0  0  0  0  0  0
   17.1081   -2.5773   19.2309 H   0  0  0  0  0  0  0  0  0  0  0  0
   15.7122   -1.9107   17.8124 H   0  0  0  0  0  0  0  0  0  0  0  0
   12.9793   -4.2171   17.5602 H   0  0  0  0  0  0  0  0  0  0  0  0
   11.2116   -4.2648   15.9510 H   0  0  0  0  0  0  0  0  0  0  0  0
   11.1290   -2.6000   14.1394 H   0  0  0  0  0  0  0  0  0  0  0  0
   12.8517   -0.9079   13.9431 H   0  0  0  0  0  0  0  0  0  0  0  0
   15.2646   -0.5812   14.3426 H   0  0  0  0  0  0  0  0  0  0  0  0
   16.1846   -0.0803   17.1878 H   0  0  0  0  0  0  0  0  0  0  0  0
   16.9468    0.4533   15.6928 H   0  0  0  0  0  0  0  0  0  0  0  0
   16.8405   -1.2686   16.0385 H   0  0  0  0  0  0  0  0  0  0  0  0
   13.5292    0.9457   14.7189 H   0  0  0  0  0  0  0  0  0  0  0  0
   13.4036    2.4377   16.4858 H   0  0  0  0  0  0  0  0  0  0  0  0
   14.7972    1.7082   17.2671 H   0  0  0  0  0  0  0  0  0  0  0  0
   13.2616    0.8115   17.1571 H   0  0  0  0  0  0  0  0  0  0  0  0
  1  2  2  0
  2  3  1  0
  3  4  2  0
  3  5  1  0
  5  6  1  0
  6  7  2  0
  7  8  1  0
  8  9  2  0
  9 10  1  0
 10 11  2  0
 11 12  1  0
 12 13  1  0
 12 14  1  0
 14 15  1  0
 11  6  1  0
  1 16  1  0
  1 17  1  0
  2 18  1  0
  5 19  1  0
  7 20  1  0
  8 21  1  0
  9 22  1  0
 10 23  1  0
 12 24  1  0
 13 25  1  0
 13 26  1  0
 13 27  1  0
 14 28  1  0
 15 29  1  0
 15 30  1  0
 15 31  1  0
M  END
>  <Energy>  (185) 
33.970413331688199

>  <compound_id>  (185) 
62018

>  <target_id>  (185) 
1

>  <reference_id>  (185) 
93

>  <inspiration_ids>  (185) 
[93, 27]

>  <energy_score>  (185) 
-0.02349299262994009

>  <distance_score>  (185) 
2.3077318914445577

>  <path>  (185) 
/opt/xchem-fragalysis-2/maxwin/BulkDock/SCRATCH/511021/C62018-P93/C62018-P93.minimised.mol

>  <scratch_subdir>  (185) 
/opt/xchem-fragalysis-2/maxwin/BulkDock/SCRATCH/511021/C62018-P93

>  <fragmenstein_runtime>  (185) 
2.207787036895752

>  <fragmenstein_outcome>  (185) 
too moved

>  <fragmenstein_mode>  (185) 
expansion

>  <fragmenstein_error>  (185) 


$$$$
C62018-P27
     RDKit          3D

 31 31  0  0  0  0  0  0  0  0999 V2000
   16.4134   -3.4904   20.0527 C   0  0  0  0  0  0  0  0  0  0  0  0
   16.6805   -2.3029   19.4784 C   0  0  0  0  0  0  0  0  0  0  0  0
   15.7176   -1.5485   18.6068 C   0  0  0  0  0  0  0  0  0  0  0  0
   15.4933   -0.4166   18.7669 O   0  0  0  0  0  0  0  0  0  0  0  0
   15.1110   -2.5567   17.6097 N   0  0  0  0  0  0  0  0  0  0  0  0
   14.0704   -2.4111   16.6972 C   0  0  0  0  0  0  0  0  0  0  0  0
   13.1552   -3.4747   16.8249 C   0  0  0  0  0  0  0  0  0  0  0  0
   11.9930   -3.5343   16.0860 C   0  0  0  0  0  0  0  0  0  0  0  0
   11.7269   -2.5421   15.1752 C   0  0  0  0  0  0  0  0  0  0  0  0
   12.6390   -1.5083   15.0003 C   0  0  0  0  0  0  0  0  0  0  0  0
   13.8408   -1.4044   15.7434 C   0  0  0  0  0  0  0  0  0  0  0  0
   14.7755   -0.3117   15.2260 C   0  0  0  0  0  0  0  0  0  0  0  0
   16.2609   -0.3720   15.5887 C   0  0  0  0  0  0  0  0  0  0  0  0
   14.2128    1.0561   15.3124 N   0  0  0  0  0  0  0  0  0  0  0  0
   14.1407    1.5727   16.6711 C   0  0  0  0  0  0  0  0  0  0  0  0
   17.1409   -3.9498   20.7152 H   0  0  0  0  0  0  0  0  0  0  0  0
   15.4596   -3.9951   19.9366 H   0  0  0  0  0  0  0  0  0  0  0  0
   17.5994   -1.7677   19.6941 H   0  0  0  0  0  0  0  0  0  0  0  0
   15.4769   -3.4796   17.7983 H   0  0  0  0  0  0  0  0  0  0  0  0
   13.3183   -4.2590   17.5620 H   0  0  0  0  0  0  0  0  0  0  0  0
   11.3119   -4.3621   16.2209 H   0  0  0  0  0  0  0  0  0  0  0  0
   10.8274   -2.5847   14.5652 H   0  0  0  0  0  0  0  0  0  0  0  0
   12.4152   -0.7896   14.2118 H   0  0  0  0  0  0  0  0  0  0  0  0
   14.8075   -0.5070   14.1418 H   0  0  0  0  0  0  0  0  0  0  0  0
   16.4753   -0.0435   16.6037 H   0  0  0  0  0  0  0  0  0  0  0  0
   16.8362    0.2852   14.9250 H   0  0  0  0  0  0  0  0  0  0  0  0
   16.6585   -1.3848   15.4627 H   0  0  0  0  0  0  0  0  0  0  0  0
   13.2770    1.0599   14.9171 H   0  0  0  0  0  0  0  0  0  0  0  0
   13.6593    2.5561   16.6527 H   0  0  0  0  0  0  0  0  0  0  0  0
   15.1340    1.7188   17.1035 H   0  0  0  0  0  0  0  0  0  0  0  0
   13.5440    0.9311   17.3262 H   0  0  0  0  0  0  0  0  0  0  0  0
  1  2  2  0
  2  3  1  0
  3  4  2  0
  3  5  1  0
  5  6  1  0
  6  7  2  0
  7  8  1  0
  8  9  2  0
  9 10  1  0
 10 11  2  0
 11 12  1  0
 12 13  1  0
 12 14  1  0
 14 15  1  0
 11  6  1  0
  1 16  1  0
  1 17  1  0
  2 18  1  0
  5 19  1  0
  7 20  1  0
  8 21  1  0
  9 22  1  0
 10 23  1  0
 12 24  1  0
 13 25  1  0
 13 26  1  0
 13 27  1  0
 14 28  1  0
 15 29  1  0
 15 30  1  0
 15 31  1  0
M  END
>  <Energy>  (186) 
45.97601481850657

>  <compound_id>  (186) 
62018

>  <target_id>  (186) 
1

>  <reference_id>  (186) 
27

>  <inspiration_ids>  (186) 
[93, 27]

>  <energy_score>  (186) 
11.982108494187344

>  <distance_score>  (186) 
2.5274576417962966

>  <path>  (186) 
/opt/xchem-fragalysis-2/maxwin/BulkDock/SCRATCH/511021/C62018-P27/C62018-P27.minimised.mol

>  <scratch_subdir>  (186) 
/opt/xchem-fragalysis-2/maxwin/BulkDock/SCRATCH/511021/C62018-P27

>  <fragmenstein_runtime>  (186) 
2.290022134780884

>  <fragmenstein_outcome>  (186) 
too moved

>  <fragmenstein_mode>  (186) 
expansion

>  <fragmenstein_error>  (186) 


$$$$
C62020-P93
     RDKit          3D

 42 42  0  0  0  0  0  0  0  0999 V2000
   15.5260   -1.4252   19.3705 C   0  0  0  0  0  0  0  0  0  0  0  0
   15.4166   -2.4368   20.4082 N   0  0  0  0  0  0  0  0  0  0  0  0
   15.0131   -3.8096   20.0682 C   0  0  0  0  0  0  0  0  0  0  0  0
   13.5153   -4.0630   19.9725 C   0  0  0  0  0  0  0  0  0  0  0  0
   15.8385   -4.4255   18.9518 C   0  0  0  0  0  0  0  0  0  0  0  0
   16.8339   -5.3416   19.3515 C   0  0  0  0  0  0  0  0  0  0  0  0
   17.7250   -5.8755   18.4293 C   0  0  0  0  0  0  0  0  0  0  0  0
   17.6442   -5.4960   17.0945 C   0  0  0  0  0  0  0  0  0  0  0  0
   16.6618   -4.5994   16.6702 C   0  0  0  0  0  0  0  0  0  0  0  0
   15.7476   -4.0737   17.5794 C   0  0  0  0  0  0  0  0  0  0  0  0
   14.7957   -3.1425   17.1600 N   0  0  0  0  0  0  0  0  0  0  0  0
   14.6277   -2.4119   15.7913 C   0  0  0  0  0  0  0  0  0  0  0  0
   15.2148   -2.5390   14.7876 O   0  0  0  0  0  0  0  0  0  0  0  0
   13.5413   -1.3290   16.0117 C   0  0  0  0  0  0  0  0  0  0  0  0
   12.5003   -1.3988   14.8974 C   0  0  0  0  0  0  0  0  0  0  0  0
   14.2615    0.0408   16.1785 C   0  0  0  0  0  0  0  0  0  0  0  0
   14.4540    0.7973   14.8712 C   0  0  0  0  0  0  0  0  0  0  0  0
   13.5486    0.9853   17.1363 C   0  0  0  0  0  0  0  0  0  0  0  0
   15.7967   -0.4764   19.8478 H   0  0  0  0  0  0  0  0  0  0  0  0
   16.3162   -1.6316   18.6457 H   0  0  0  0  0  0  0  0  0  0  0  0
   14.5657   -1.2474   18.8943 H   0  0  0  0  0  0  0  0  0  0  0  0
   16.3188   -2.4880   20.8833 H   0  0  0  0  0  0  0  0  0  0  0  0
   15.2713   -4.3687   20.9801 H   0  0  0  0  0  0  0  0  0  0  0  0
   13.3147   -5.1264   19.8026 H   0  0  0  0  0  0  0  0  0  0  0  0
   13.0283   -3.5141   19.1725 H   0  0  0  0  0  0  0  0  0  0  0  0
   13.0240   -3.7933   20.9120 H   0  0  0  0  0  0  0  0  0  0  0  0
   16.9397   -5.6309   20.3954 H   0  0  0  0  0  0  0  0  0  0  0  0
   18.4904   -6.5775   18.7501 H   0  0  0  0  0  0  0  0  0  0  0  0
   18.3468   -5.9022   16.3706 H   0  0  0  0  0  0  0  0  0  0  0  0
   16.6251   -4.3325   15.6162 H   0  0  0  0  0  0  0  0  0  0  0  0
   14.0712   -2.8482   17.7887 H   0  0  0  0  0  0  0  0  0  0  0  0
   12.9983   -1.5408   16.9382 H   0  0  0  0  0  0  0  0  0  0  0  0
   11.7350   -0.6270   15.0262 H   0  0  0  0  0  0  0  0  0  0  0  0
   12.9469   -1.2856   13.9041 H   0  0  0  0  0  0  0  0  0  0  0  0
   11.9990   -2.3735   14.9090 H   0  0  0  0  0  0  0  0  0  0  0  0
   15.2599   -0.1384   16.5995 H   0  0  0  0  0  0  0  0  0  0  0  0
   15.0639    1.6945   15.0274 H   0  0  0  0  0  0  0  0  0  0  0  0
   13.5024    1.1212   14.4362 H   0  0  0  0  0  0  0  0  0  0  0  0
   14.9754    0.1802   14.1322 H   0  0  0  0  0  0  0  0  0  0  0  0
   14.0977    1.9280   17.2409 H   0  0  0  0  0  0  0  0  0  0  0  0
   12.5449    1.2262   16.7747 H   0  0  0  0  0  0  0  0  0  0  0  0
   13.4883    0.5450   18.1306 H   0  0  0  0  0  0  0  0  0  0  0  0
  1  2  1  0
  2  3  1  0
  3  4  1  0
  3  5  1  0
  5  6  2  0
  6  7  1  0
  7  8  2  0
  8  9  1  0
  9 10  2  0
 10 11  1  0
 11 12  1  0
 12 13  2  0
 12 14  1  0
 14 15  1  0
 14 16  1  0
 16 17  1  0
 16 18  1  0
 10  5  1  0
  1 19  1  0
  1 20  1  0
  1 21  1  0
  2 22  1  0
  3 23  1  0
  4 24  1  0
  4 25  1  0
  4 26  1  0
  6 27  1  0
  7 28  1  0
  8 29  1  0
  9 30  1  0
 11 31  1  0
 14 32  1  0
 15 33  1  0
 15 34  1  0
 15 35  1  0
 16 36  1  0
 17 37  1  0
 17 38  1  0
 17 39  1  0
 18 40  1  0
 18 41  1  0
 18 42  1  0
M  END
>  <Energy>  (187) 
44.394588170946932

>  <compound_id>  (187) 
62020

>  <target_id>  (187) 
1

>  <reference_id>  (187) 
93

>  <inspiration_ids>  (187) 
[93, 27]

>  <energy_score>  (187) 
-24.019594061422694

>  <distance_score>  (187) 
1.7937714021941273

>  <path>  (187) 
/opt/xchem-fragalysis-2/maxwin/BulkDock/SCRATCH/511021/C62020-P93/C62020-P93.minimised.mol

>  <scratch_subdir>  (187) 
/opt/xchem-fragalysis-2/maxwin/BulkDock/SCRATCH/511021/C62020-P93

>  <fragmenstein_runtime>  (187) 
7.042454481124878

>  <fragmenstein_outcome>  (187) 
too moved

>  <fragmenstein_mode>  (187) 
expansion

>  <fragmenstein_error>  (187) 


$$$$
C62020-P27
     RDKit          3D

 42 42  0  0  0  0  0  0  0  0999 V2000
   15.7123   -1.4027   19.7188 C   0  0  0  0  0  0  0  0  0  0  0  0
   14.5148   -2.2411   19.8660 N   0  0  0  0  0  0  0  0  0  0  0  0
   14.8396   -3.6542   20.1808 C   0  0  0  0  0  0  0  0  0  0  0  0
   13.5517   -4.4481   20.3952 C   0  0  0  0  0  0  0  0  0  0  0  0
   15.6833   -4.3426   19.1141 C   0  0  0  0  0  0  0  0  0  0  0  0
   16.6000   -5.3178   19.5407 C   0  0  0  0  0  0  0  0  0  0  0  0
   17.4581   -5.9203   18.6271 C   0  0  0  0  0  0  0  0  0  0  0  0
   17.4088   -5.5580   17.2815 C   0  0  0  0  0  0  0  0  0  0  0  0
   16.4872   -4.6100   16.8318 C   0  0  0  0  0  0  0  0  0  0  0  0
   15.6170   -4.0152   17.7349 C   0  0  0  0  0  0  0  0  0  0  0  0
   14.7097   -3.0320   17.3515 N   0  0  0  0  0  0  0  0  0  0  0  0
   14.4928   -2.3380   15.9749 C   0  0  0  0  0  0  0  0  0  0  0  0
   14.9908   -2.5420   14.9373 O   0  0  0  0  0  0  0  0  0  0  0  0
   13.4707   -1.2072   16.2236 C   0  0  0  0  0  0  0  0  0  0  0  0
   12.4625   -1.1574   15.0757 C   0  0  0  0  0  0  0  0  0  0  0  0
   14.2591    0.1030   16.4911 C   0  0  0  0  0  0  0  0  0  0  0  0
   14.4587    0.9671   15.2519 C   0  0  0  0  0  0  0  0  0  0  0  0
   13.6106    0.9743   17.5587 C   0  0  0  0  0  0  0  0  0  0  0  0
   16.3294   -1.4497   20.6226 H   0  0  0  0  0  0  0  0  0  0  0  0
   16.3372   -1.6555   18.8600 H   0  0  0  0  0  0  0  0  0  0  0  0
   15.4046   -0.3607   19.5953 H   0  0  0  0  0  0  0  0  0  0  0  0
   13.9726   -1.8789   20.6589 H   0  0  0  0  0  0  0  0  0  0  0  0
   15.3951   -3.6536   21.1285 H   0  0  0  0  0  0  0  0  0  0  0  0
   12.9953   -4.5602   19.4599 H   0  0  0  0  0  0  0  0  0  0  0  0
   12.9027   -3.9667   21.1341 H   0  0  0  0  0  0  0  0  0  0  0  0
   13.7714   -5.4570   20.7632 H   0  0  0  0  0  0  0  0  0  0  0  0
   16.6664   -5.5958   20.5899 H   0  0  0  0  0  0  0  0  0  0  0  0
   18.1732   -6.6683   18.9598 H   0  0  0  0  0  0  0  0  0  0  0  0
   18.0869   -6.0234   16.5702 H   0  0  0  0  0  0  0  0  0  0  0  0
   16.4645   -4.3522   15.7758 H   0  0  0  0  0  0  0  0  0  0  0  0
   14.0494   -2.6577   18.0293 H   0  0  0  0  0  0  0  0  0  0  0  0
   12.8832   -1.4526   17.1143 H   0  0  0  0  0  0  0  0  0  0  0  0
   11.7277   -0.3619   15.2356 H   0  0  0  0  0  0  0  0  0  0  0  0
   12.9432   -0.9994   14.1048 H   0  0  0  0  0  0  0  0  0  0  0  0
   11.9185   -2.1068   15.0086 H   0  0  0  0  0  0  0  0  0  0  0  0
   15.2572   -0.1581   16.8678 H   0  0  0  0  0  0  0  0  0  0  0  0
   15.1060    1.8225   15.4770 H   0  0  0  0  0  0  0  0  0  0  0  0
   13.5138    1.3656   14.8677 H   0  0  0  0  0  0  0  0  0  0  0  0
   14.9439    0.3981   14.4520 H   0  0  0  0  0  0  0  0  0  0  0  0
   14.2384    1.8424   17.7889 H   0  0  0  0  0  0  0  0  0  0  0  0
   12.6407    1.3496   17.2223 H   0  0  0  0  0  0  0  0  0  0  0  0
   13.4852    0.4134   18.4853 H   0  0  0  0  0  0  0  0  0  0  0  0
  1  2  1  0
  2  3  1  0
  3  4  1  0
  3  5  1  0
  5  6  2  0
  6  7  1  0
  7  8  2  0
  8  9  1  0
  9 10  2  0
 10 11  1  0
 11 12  1  0
 12 13  2  0
 12 14  1  0
 14 15  1  0
 14 16  1  0
 16 17  1  0
 16 18  1  0
 10  5  1  0
  1 19  1  0
  1 20  1  0
  1 21  1  0
  2 22  1  0
  3 23  1  0
  4 24  1  0
  4 25  1  0
  4 26  1  0
  6 27  1  0
  7 28  1  0
  8 29  1  0
  9 30  1  0
 11 31  1  0
 14 32  1  0
 15 33  1  0
 15 34  1  0
 15 35  1  0
 16 36  1  0
 17 37  1  0
 17 38  1  0
 17 39  1  0
 18 40  1  0
 18 41  1  0
 18 42  1  0
M  END
>  <Energy>  (188) 
31.304353946471963

>  <compound_id>  (188) 
62020

>  <target_id>  (188) 
1

>  <reference_id>  (188) 
27

>  <inspiration_ids>  (188) 
[93, 27]

>  <energy_score>  (188) 
-37.10982828589717

>  <distance_score>  (188) 
1.774181316788876

>  <path>  (188) 
/opt/xchem-fragalysis-2/maxwin/BulkDock/SCRATCH/511021/C62020-P27/C62020-P27.minimised.mol

>  <scratch_subdir>  (188) 
/opt/xchem-fragalysis-2/maxwin/BulkDock/SCRATCH/511021/C62020-P27

>  <fragmenstein_runtime>  (188) 
7.451041221618652

>  <fragmenstein_outcome>  (188) 
too moved

>  <fragmenstein_mode>  (188) 
expansion

>  <fragmenstein_error>  (188) 


$$$$
C62021-P93
     RDKit          3D

 30 30  0  0  0  0  0  0  0  0999 V2000
   13.6387    1.8702   16.1392 C   0  0  0  0  0  0  0  0  0  0  0  0
   13.4184    1.3032   14.8177 N   0  0  0  0  0  0  0  0  0  0  0  0
   14.2397    0.1146   14.5591 C   0  0  0  0  0  0  0  0  0  0  0  0
   14.3186   -0.0920   13.0414 C   0  0  0  0  0  0  0  0  0  0  0  0
   13.7257   -1.1131   15.2902 C   0  0  0  0  0  0  0  0  0  0  0  0
   12.6255   -1.8472   14.8431 C   0  0  0  0  0  0  0  0  0  0  0  0
   12.2090   -2.9962   15.5161 C   0  0  0  0  0  0  0  0  0  0  0  0
   12.8824   -3.4359   16.6472 C   0  0  0  0  0  0  0  0  0  0  0  0
   13.9405   -2.6854   17.1430 C   0  0  0  0  0  0  0  0  0  0  0  0
   14.5701   -3.0398   18.3287 N   0  0  0  0  0  0  0  0  0  0  0  0
   14.3628   -4.2843   19.2571 C   0  0  0  0  0  0  0  0  0  0  0  0
   13.6850   -5.2319   19.1174 O   0  0  0  0  0  0  0  0  0  0  0  0
   15.2306   -4.0646   20.5061 C   0  0  0  0  0  0  0  0  0  0  0  0
   14.5174   -4.2601   21.6418 F   0  0  0  0  0  0  0  0  0  0  0  0
   16.2886   -4.9181   20.5463 F   0  0  0  0  0  0  0  0  0  0  0  0
   15.7496   -2.8038   20.5664 F   0  0  0  0  0  0  0  0  0  0  0  0
   14.3534   -1.5332   16.4704 C   0  0  0  0  0  0  0  0  0  0  0  0
   14.6897    2.1374   16.2889 H   0  0  0  0  0  0  0  0  0  0  0  0
   13.0527    2.7894   16.2382 H   0  0  0  0  0  0  0  0  0  0  0  0
   13.3228    1.1931   16.9380 H   0  0  0  0  0  0  0  0  0  0  0  0
   12.4351    1.0661   14.6945 H   0  0  0  0  0  0  0  0  0  0  0  0
   15.2720    0.3109   14.8803 H   0  0  0  0  0  0  0  0  0  0  0  0
   13.3294   -0.1853   12.5824 H   0  0  0  0  0  0  0  0  0  0  0  0
   14.8203    0.7570   12.5624 H   0  0  0  0  0  0  0  0  0  0  0  0
   14.8884   -0.9958   12.7973 H   0  0  0  0  0  0  0  0  0  0  0  0
   12.0754   -1.5471   13.9520 H   0  0  0  0  0  0  0  0  0  0  0  0
   11.3579   -3.5589   15.1373 H   0  0  0  0  0  0  0  0  0  0  0  0
   12.5414   -4.3429   17.1376 H   0  0  0  0  0  0  0  0  0  0  0  0
   15.1700   -2.3613   18.7968 H   0  0  0  0  0  0  0  0  0  0  0  0
   15.1937   -0.9585   16.8549 H   0  0  0  0  0  0  0  0  0  0  0  0
  1  2  1  0
  2  3  1  0
  3  4  1  0
  3  5  1  0
  5  6  2  0
  6  7  1  0
  7  8  2  0
  8  9  1  0
  9 10  1  0
 10 11  1  0
 11 12  2  0
 11 13  1  0
 13 14  1  0
 13 15  1  0
 13 16  1  0
  9 17  2  0
 17  5  1  0
  1 18  1  0
  1 19  1  0
  1 20  1  0
  2 21  1  0
  3 22  1  0
  4 23  1  0
  4 24  1  0
  4 25  1  0
  6 26  1  0
  7 27  1  0
  8 28  1  0
 10 29  1  0
 17 30  1  0
M  END
>  <Energy>  (189) 
98.632935692402654

>  <compound_id>  (189) 
62021

>  <target_id>  (189) 
1

>  <reference_id>  (189) 
93

>  <inspiration_ids>  (189) 
[93, 27]

>  <energy_score>  (189) 
-34.860834443856874

>  <distance_score>  (189) 
2.2215225360583757

>  <path>  (189) 
/opt/xchem-fragalysis-2/maxwin/BulkDock/SCRATCH/511021/C62021-P93/C62021-P93.minimised.mol

>  <scratch_subdir>  (189) 
/opt/xchem-fragalysis-2/maxwin/BulkDock/SCRATCH/511021/C62021-P93

>  <fragmenstein_runtime>  (189) 
2.6257548332214355

>  <fragmenstein_outcome>  (189) 
too moved

>  <fragmenstein_mode>  (189) 
expansion

>  <fragmenstein_error>  (189) 


$$$$
C62021-P27
     RDKit          3D

 30 30  0  0  0  0  0  0  0  0999 V2000
   13.6910    1.7631   16.1757 C   0  0  0  0  0  0  0  0  0  0  0  0
   13.5901    1.2025   14.8359 N   0  0  0  0  0  0  0  0  0  0  0  0
   14.3997   -0.0109   14.6626 C   0  0  0  0  0  0  0  0  0  0  0  0
   14.5599   -0.2776   13.1603 C   0  0  0  0  0  0  0  0  0  0  0  0
   13.8177   -1.2110   15.3899 C   0  0  0  0  0  0  0  0  0  0  0  0
   12.6317   -1.8179   14.9694 C   0  0  0  0  0  0  0  0  0  0  0  0
   12.1256   -2.9308   15.6354 C   0  0  0  0  0  0  0  0  0  0  0  0
   12.7904   -3.4531   16.7366 C   0  0  0  0  0  0  0  0  0  0  0  0
   13.9554   -2.8495   17.1957 C   0  0  0  0  0  0  0  0  0  0  0  0
   14.6062   -3.3481   18.3218 N   0  0  0  0  0  0  0  0  0  0  0  0
   14.1987   -4.4965   19.3056 C   0  0  0  0  0  0  0  0  0  0  0  0
   13.2954   -5.2421   19.2689 O   0  0  0  0  0  0  0  0  0  0  0  0
   15.2080   -4.5265   20.4611 C   0  0  0  0  0  0  0  0  0  0  0  0
   14.7414   -3.8281   21.5236 F   0  0  0  0  0  0  0  0  0  0  0  0
   16.4082   -3.9851   20.1223 F   0  0  0  0  0  0  0  0  0  0  0  0
   15.4696   -5.7870   20.9019 F   0  0  0  0  0  0  0  0  0  0  0  0
   14.4635   -1.7359   16.5218 C   0  0  0  0  0  0  0  0  0  0  0  0
   14.7284    2.0025   16.4305 H   0  0  0  0  0  0  0  0  0  0  0  0
   13.1214    2.6968   16.2190 H   0  0  0  0  0  0  0  0  0  0  0  0
   13.2798    1.0921   16.9361 H   0  0  0  0  0  0  0  0  0  0  0  0
   12.6167    0.9938   14.6198 H   0  0  0  0  0  0  0  0  0  0  0  0
   15.4128    0.1810   15.0413 H   0  0  0  0  0  0  0  0  0  0  0  0
   13.5975   -0.4002   12.6518 H   0  0  0  0  0  0  0  0  0  0  0  0
   15.0837    0.5536   12.6743 H   0  0  0  0  0  0  0  0  0  0  0  0
   15.1462   -1.1872   12.9859 H   0  0  0  0  0  0  0  0  0  0  0  0
   12.0865   -1.4431   14.1038 H   0  0  0  0  0  0  0  0  0  0  0  0
   11.2157   -3.4062   15.2739 H   0  0  0  0  0  0  0  0  0  0  0  0
   12.3742   -4.3302   17.2203 H   0  0  0  0  0  0  0  0  0  0  0  0
   15.4037   -2.8416   18.7011 H   0  0  0  0  0  0  0  0  0  0  0  0
   15.3804   -1.2670   16.8723 H   0  0  0  0  0  0  0  0  0  0  0  0
  1  2  1  0
  2  3  1  0
  3  4  1  0
  3  5  1  0
  5  6  2  0
  6  7  1  0
  7  8  2  0
  8  9  1  0
  9 10  1  0
 10 11  1  0
 11 12  2  0
 11 13  1  0
 13 14  1  0
 13 15  1  0
 13 16  1  0
  9 17  2  0
 17  5  1  0
  1 18  1  0
  1 19  1  0
  1 20  1  0
  2 21  1  0
  3 22  1  0
  4 23  1  0
  4 24  1  0
  4 25  1  0
  6 26  1  0
  7 27  1  0
  8 28  1  0
 10 29  1  0
 17 30  1  0
M  END
>  <Energy>  (190) 
98.496000437499944

>  <compound_id>  (190) 
62021

>  <target_id>  (190) 
1

>  <reference_id>  (190) 
27

>  <inspiration_ids>  (190) 
[93, 27]

>  <energy_score>  (190) 
-34.997769698758276

>  <distance_score>  (190) 
2.2219246894787066

>  <path>  (190) 
/opt/xchem-fragalysis-2/maxwin/BulkDock/SCRATCH/511021/C62021-P27/C62021-P27.minimised.mol

>  <scratch_subdir>  (190) 
/opt/xchem-fragalysis-2/maxwin/BulkDock/SCRATCH/511021/C62021-P27

>  <fragmenstein_runtime>  (190) 
2.7206621170043945

>  <fragmenstein_outcome>  (190) 
too moved

>  <fragmenstein_mode>  (190) 
expansion

>  <fragmenstein_error>  (190) 


$$$$
C62022-P93
     RDKit          3D

 29 29  0  0  0  0  0  0  0  0999 V2000
   16.9535   -3.8342   20.2149 C   0  0  0  0  0  0  0  0  0  0  0  0
   16.5063   -3.0082   19.4631 C   0  0  0  0  0  0  0  0  0  0  0  0
   15.8279   -2.1216   18.5282 C   0  0  0  0  0  0  0  0  0  0  0  0
   15.9403   -0.9663   18.6050 O   0  0  0  0  0  0  0  0  0  0  0  0
   14.9502   -2.9767   17.6056 N   0  0  0  0  0  0  0  0  0  0  0  0
   13.9806   -2.6030   16.6721 C   0  0  0  0  0  0  0  0  0  0  0  0
   12.9782   -3.5917   16.5930 C   0  0  0  0  0  0  0  0  0  0  0  0
   11.8566   -3.4302   15.8127 C   0  0  0  0  0  0  0  0  0  0  0  0
   11.7163   -2.2804   15.0795 C   0  0  0  0  0  0  0  0  0  0  0  0
   12.7176   -1.3202   15.0857 C   0  0  0  0  0  0  0  0  0  0  0  0
   13.8808   -1.4469   15.8707 C   0  0  0  0  0  0  0  0  0  0  0  0
   14.9931   -0.4387   15.6072 C   0  0  0  0  0  0  0  0  0  0  0  0
   15.8127   -0.9044   14.3943 C   0  0  0  0  0  0  0  0  0  0  0  0
   14.5562    0.9496   15.3422 N   0  0  0  0  0  0  0  0  0  0  0  0
   13.9915    1.5975   16.5122 C   0  0  0  0  0  0  0  0  0  0  0  0
   17.3578   -4.5509   20.8919 H   0  0  0  0  0  0  0  0  0  0  0  0
   15.0382   -3.9508   17.8638 H   0  0  0  0  0  0  0  0  0  0  0  0
   13.0432   -4.5062   17.1794 H   0  0  0  0  0  0  0  0  0  0  0  0
   11.1035   -4.2034   15.7670 H   0  0  0  0  0  0  0  0  0  0  0  0
   10.8389   -2.1436   14.4580 H   0  0  0  0  0  0  0  0  0  0  0  0
   12.5770   -0.4783   14.4133 H   0  0  0  0  0  0  0  0  0  0  0  0
   15.6853   -0.4041   16.4446 H   0  0  0  0  0  0  0  0  0  0  0  0
   15.2091   -0.9402   13.4794 H   0  0  0  0  0  0  0  0  0  0  0  0
   16.6583   -0.2312   14.2121 H   0  0  0  0  0  0  0  0  0  0  0  0
   16.2215   -1.9081   14.5594 H   0  0  0  0  0  0  0  0  0  0  0  0
   13.9326    1.0028   14.5456 H   0  0  0  0  0  0  0  0  0  0  0  0
   14.7000    1.6028   17.3467 H   0  0  0  0  0  0  0  0  0  0  0  0
   13.7629    2.6410   16.2738 H   0  0  0  0  0  0  0  0  0  0  0  0
   13.0622    1.1219   16.8368 H   0  0  0  0  0  0  0  0  0  0  0  0
  1  2  3  0
  2  3  1  0
  3  4  2  0
  3  5  1  0
  5  6  1  0
  6  7  2  0
  7  8  1  0
  8  9  2  0
  9 10  1  0
 10 11  2  0
 11 12  1  0
 12 13  1  0
 12 14  1  0
 14 15  1  0
 11  6  1  0
  1 16  1  0
  5 17  1  0
  7 18  1  0
  8 19  1  0
  9 20  1  0
 10 21  1  0
 12 22  1  0
 13 23  1  0
 13 24  1  0
 13 25  1  0
 14 26  1  0
 15 27  1  0
 15 28  1  0
 15 29  1  0
M  END
>  <Energy>  (191) 
31.414650086777193

>  <compound_id>  (191) 
62022

>  <target_id>  (191) 
1

>  <reference_id>  (191) 
93

>  <inspiration_ids>  (191) 
[93, 27]

>  <energy_score>  (191) 
7.160964203795913

>  <distance_score>  (191) 
2.338706509043405

>  <path>  (191) 
/opt/xchem-fragalysis-2/maxwin/BulkDock/SCRATCH/511021/C62022-P93/C62022-P93.minimised.mol

>  <scratch_subdir>  (191) 
/opt/xchem-fragalysis-2/maxwin/BulkDock/SCRATCH/511021/C62022-P93

>  <fragmenstein_runtime>  (191) 
2.210114002227783

>  <fragmenstein_outcome>  (191) 
too moved

>  <fragmenstein_mode>  (191) 
expansion

>  <fragmenstein_error>  (191) 


$$$$
C62022-P27
     RDKit          3D

 29 29  0  0  0  0  0  0  0  0999 V2000
   16.6536   -4.0651   20.2685 C   0  0  0  0  0  0  0  0  0  0  0  0
   16.4056   -3.3378   19.3431 C   0  0  0  0  0  0  0  0  0  0  0  0
   16.0195   -2.5489   18.1821 C   0  0  0  0  0  0  0  0  0  0  0  0
   16.8091   -1.9087   17.6157 O   0  0  0  0  0  0  0  0  0  0  0  0
   14.5410   -2.8178   17.8639 N   0  0  0  0  0  0  0  0  0  0  0  0
   13.7645   -2.4436   16.7594 C   0  0  0  0  0  0  0  0  0  0  0  0
   12.6269   -3.2739   16.6586 C   0  0  0  0  0  0  0  0  0  0  0  0
   11.7723   -3.2219   15.5760 C   0  0  0  0  0  0  0  0  0  0  0  0
   12.0569   -2.3542   14.5504 C   0  0  0  0  0  0  0  0  0  0  0  0
   13.1444   -1.4990   14.6384 C   0  0  0  0  0  0  0  0  0  0  0  0
   13.9919   -1.4742   15.7631 C   0  0  0  0  0  0  0  0  0  0  0  0
   15.0321   -0.3659   15.7867 C   0  0  0  0  0  0  0  0  0  0  0  0
   16.1783   -0.6868   14.8200 C   0  0  0  0  0  0  0  0  0  0  0  0
   14.5063    0.9774   15.4286 N   0  0  0  0  0  0  0  0  0  0  0  0
   13.6296    1.5346   16.4428 C   0  0  0  0  0  0  0  0  0  0  0  0
   16.8896   -4.7024   21.0890 H   0  0  0  0  0  0  0  0  0  0  0  0
   14.1259   -3.3561   18.6154 H   0  0  0  0  0  0  0  0  0  0  0  0
   12.4284   -4.0351   17.4113 H   0  0  0  0  0  0  0  0  0  0  0  0
   10.9279   -3.8951   15.4930 H   0  0  0  0  0  0  0  0  0  0  0  0
   11.4307   -2.3387   13.6655 H   0  0  0  0  0  0  0  0  0  0  0  0
   13.3125   -0.8296   13.7978 H   0  0  0  0  0  0  0  0  0  0  0  0
   15.4400   -0.2669   16.7940 H   0  0  0  0  0  0  0  0  0  0  0  0
   15.8481   -0.6806   13.7743 H   0  0  0  0  0  0  0  0  0  0  0  0
   16.9855    0.0481   14.9174 H   0  0  0  0  0  0  0  0  0  0  0  0
   16.6025   -1.6773   15.0171 H   0  0  0  0  0  0  0  0  0  0  0  0
   14.0471    0.9611   14.5247 H   0  0  0  0  0  0  0  0  0  0  0  0
   14.1347    1.6095   17.4112 H   0  0  0  0  0  0  0  0  0  0  0  0
   13.3349    2.5475   16.1511 H   0  0  0  0  0  0  0  0  0  0  0  0
   12.7152    0.9461   16.5623 H   0  0  0  0  0  0  0  0  0  0  0  0
  1  2  3  0
  2  3  1  0
  3  4  2  0
  3  5  1  0
  5  6  1  0
  6  7  2  0
  7  8  1  0
  8  9  2  0
  9 10  1  0
 10 11  2  0
 11 12  1  0
 12 13  1  0
 12 14  1  0
 14 15  1  0
 11  6  1  0
  1 16  1  0
  5 17  1  0
  7 18  1  0
  8 19  1  0
  9 20  1  0
 10 21  1  0
 12 22  1  0
 13 23  1  0
 13 24  1  0
 13 25  1  0
 14 26  1  0
 15 27  1  0
 15 28  1  0
 15 29  1  0
M  END
>  <Energy>  (192) 
28.913947044091053

>  <compound_id>  (192) 
62022

>  <target_id>  (192) 
1

>  <reference_id>  (192) 
27

>  <inspiration_ids>  (192) 
[93, 27]

>  <energy_score>  (192) 
4.660261161108707

>  <distance_score>  (192) 
2.4075217530320123

>  <path>  (192) 
/opt/xchem-fragalysis-2/maxwin/BulkDock/SCRATCH/511021/C62022-P27/C62022-P27.minimised.mol

>  <scratch_subdir>  (192) 
/opt/xchem-fragalysis-2/maxwin/BulkDock/SCRATCH/511021/C62022-P27

>  <fragmenstein_runtime>  (192) 
2.2541720867156982

>  <fragmenstein_outcome>  (192) 
too moved

>  <fragmenstein_mode>  (192) 
expansion

>  <fragmenstein_error>  (192) 


$$$$
C62027-P93
     RDKit          3D

 32 32  0  0  0  0  0  0  0  0999 V2000
   13.5490    1.3655   16.6674 C   0  0  0  0  0  0  0  0  0  0  0  0
   14.6501    0.4533   16.9687 C   0  0  0  0  0  0  0  0  0  0  0  0
   15.5796   -0.2805   17.1758 C   0  0  0  0  0  0  0  0  0  0  0  0
   16.6247   -1.2705   17.3728 C   0  0  0  0  0  0  0  0  0  0  0  0
   17.6329   -1.1761   16.7979 O   0  0  0  0  0  0  0  0  0  0  0  0
   16.1080   -2.3793   18.3039 N   0  0  0  0  0  0  0  0  0  0  0  0
   16.6645   -3.6126   18.6399 C   0  0  0  0  0  0  0  0  0  0  0  0
   17.9215   -3.9604   18.1490 C   0  0  0  0  0  0  0  0  0  0  0  0
   18.4758   -5.2068   18.4305 C   0  0  0  0  0  0  0  0  0  0  0  0
   17.7825   -6.1180   19.2122 C   0  0  0  0  0  0  0  0  0  0  0  0
   16.5164   -5.7947   19.6857 C   0  0  0  0  0  0  0  0  0  0  0  0
   15.9174   -4.5524   19.3894 C   0  0  0  0  0  0  0  0  0  0  0  0
   14.4794   -4.3724   19.8530 C   0  0  0  0  0  0  0  0  0  0  0  0
   14.2855   -3.2080   20.8160 C   0  0  0  0  0  0  0  0  0  0  0  0
   13.4669   -4.5055   18.7938 N   0  0  0  0  0  0  0  0  0  0  0  0
   13.5994   -3.7131   17.5754 C   0  0  0  0  0  0  0  0  0  0  0  0
   13.2684    1.9439   17.5525 H   0  0  0  0  0  0  0  0  0  0  0  0
   12.6692    0.8133   16.3242 H   0  0  0  0  0  0  0  0  0  0  0  0
   13.8330    2.0704   15.8800 H   0  0  0  0  0  0  0  0  0  0  0  0
   15.2254   -2.1027   18.6972 H   0  0  0  0  0  0  0  0  0  0  0  0
   18.5026   -3.2731   17.5405 H   0  0  0  0  0  0  0  0  0  0  0  0
   19.4591   -5.4598   18.0419 H   0  0  0  0  0  0  0  0  0  0  0  0
   18.2159   -7.0900   19.4330 H   0  0  0  0  0  0  0  0  0  0  0  0
   15.9798   -6.5483   20.2597 H   0  0  0  0  0  0  0  0  0  0  0  0
   14.2672   -5.2429   20.4908 H   0  0  0  0  0  0  0  0  0  0  0  0
   13.4007   -3.4029   21.4273 H   0  0  0  0  0  0  0  0  0  0  0  0
   15.1333   -3.1132   21.5040 H   0  0  0  0  0  0  0  0  0  0  0  0
   14.1500   -2.2461   20.3205 H   0  0  0  0  0  0  0  0  0  0  0  0
   12.5325   -4.3582   19.1947 H   0  0  0  0  0  0  0  0  0  0  0  0
   12.7557   -3.9628   16.9214 H   0  0  0  0  0  0  0  0  0  0  0  0
   14.4930   -3.9670   17.0016 H   0  0  0  0  0  0  0  0  0  0  0  0
   13.5275   -2.6418   17.7632 H   0  0  0  0  0  0  0  0  0  0  0  0
  1  2  1  0
  2  3  3  0
  3  4  1  0
  4  5  2  0
  4  6  1  0
  6  7  1  0
  7  8  2  0
  8  9  1  0
  9 10  2  0
 10 11  1  0
 11 12  2  0
 12 13  1  0
 13 14  1  0
 13 15  1  0
 15 16  1  0
 12  7  1  0
  1 17  1  0
  1 18  1  0
  1 19  1  0
  6 20  1  0
  8 21  1  0
  9 22  1  0
 10 23  1  0
 11 24  1  0
 13 25  1  0
 14 26  1  0
 14 27  1  0
 14 28  1  0
 15 29  1  0
 16 30  1  0
 16 31  1  0
 16 32  1  0
M  END
>  <Energy>  (193) 
30.17953662827081

>  <compound_id>  (193) 
62027

>  <target_id>  (193) 
1

>  <reference_id>  (193) 
93

>  <inspiration_ids>  (193) 
[93, 27]

>  <energy_score>  (193) 
-20.818359945814834

>  <distance_score>  (193) 
2.3906013878349937

>  <path>  (193) 
/opt/xchem-fragalysis-2/maxwin/BulkDock/SCRATCH/511021/C62027-P93/C62027-P93.minimised.mol

>  <scratch_subdir>  (193) 
/opt/xchem-fragalysis-2/maxwin/BulkDock/SCRATCH/511021/C62027-P93

>  <fragmenstein_runtime>  (193) 
3.39553165435791

>  <fragmenstein_outcome>  (193) 
too moved

>  <fragmenstein_mode>  (193) 
expansion

>  <fragmenstein_error>  (193) 


$$$$
C62027-P27
     RDKit          3D

 32 32  0  0  0  0  0  0  0  0999 V2000
   13.0397    1.1695   16.3635 C   0  0  0  0  0  0  0  0  0  0  0  0
   13.6428   -0.1531   16.2184 C   0  0  0  0  0  0  0  0  0  0  0  0
   14.2196   -1.2006   16.1018 C   0  0  0  0  0  0  0  0  0  0  0  0
   15.0572   -2.3851   16.0892 C   0  0  0  0  0  0  0  0  0  0  0  0
   15.7063   -2.6204   15.1528 O   0  0  0  0  0  0  0  0  0  0  0  0
   14.9825   -3.0883   17.4498 N   0  0  0  0  0  0  0  0  0  0  0  0
   15.7323   -4.1369   17.9663 C   0  0  0  0  0  0  0  0  0  0  0  0
   16.6297   -4.8399   17.1685 C   0  0  0  0  0  0  0  0  0  0  0  0
   17.4405   -5.8230   17.7338 C   0  0  0  0  0  0  0  0  0  0  0  0
   17.3551   -6.1098   19.0932 C   0  0  0  0  0  0  0  0  0  0  0  0
   16.4675   -5.4023   19.8992 C   0  0  0  0  0  0  0  0  0  0  0  0
   15.6519   -4.3925   19.3564 C   0  0  0  0  0  0  0  0  0  0  0  0
   14.7499   -3.6299   20.3250 C   0  0  0  0  0  0  0  0  0  0  0  0
   13.4697   -4.4401   20.5372 C   0  0  0  0  0  0  0  0  0  0  0  0
   14.3959   -2.2478   19.9095 N   0  0  0  0  0  0  0  0  0  0  0  0
   15.5581   -1.3525   19.8250 C   0  0  0  0  0  0  0  0  0  0  0  0
   11.9741    1.1412   16.1175 H   0  0  0  0  0  0  0  0  0  0  0  0
   13.5206    1.8910   15.6960 H   0  0  0  0  0  0  0  0  0  0  0  0
   13.1459    1.5364   17.3887 H   0  0  0  0  0  0  0  0  0  0  0  0
   14.3640   -2.5648   18.0700 H   0  0  0  0  0  0  0  0  0  0  0  0
   16.7201   -4.6351   16.1047 H   0  0  0  0  0  0  0  0  0  0  0  0
   18.1391   -6.3712   17.1065 H   0  0  0  0  0  0  0  0  0  0  0  0
   17.9854   -6.8839   19.5237 H   0  0  0  0  0  0  0  0  0  0  0  0
   16.4273   -5.6322   20.9619 H   0  0  0  0  0  0  0  0  0  0  0  0
   15.2630   -3.5515   21.2932 H   0  0  0  0  0  0  0  0  0  0  0  0
   12.7786   -3.9286   21.2146 H   0  0  0  0  0  0  0  0  0  0  0  0
   12.9597   -4.6255   19.5871 H   0  0  0  0  0  0  0  0  0  0  0  0
   13.6906   -5.4179   20.9809 H   0  0  0  0  0  0  0  0  0  0  0  0
   13.7759   -1.8778   20.6409 H   0  0  0  0  0  0  0  0  0  0  0  0
   16.0017   -1.2124   20.8166 H   0  0  0  0  0  0  0  0  0  0  0  0
   15.2228   -0.3724   19.4711 H   0  0  0  0  0  0  0  0  0  0  0  0
   16.3443   -1.6938   19.1481 H   0  0  0  0  0  0  0  0  0  0  0  0
  1  2  1  0
  2  3  3  0
  3  4  1  0
  4  5  2  0
  4  6  1  0
  6  7  1  0
  7  8  2  0
  8  9  1  0
  9 10  2  0
 10 11  1  0
 11 12  2  0
 12 13  1  0
 13 14  1  0
 13 15  1  0
 15 16  1  0
 12  7  1  0
  1 17  1  0
  1 18  1  0
  1 19  1  0
  6 20  1  0
  8 21  1  0
  9 22  1  0
 10 23  1  0
 11 24  1  0
 13 25  1  0
 14 26  1  0
 14 27  1  0
 14 28  1  0
 15 29  1  0
 16 30  1  0
 16 31  1  0
 16 32  1  0
M  END
>  <Energy>  (194) 
17.618200208905137

>  <compound_id>  (194) 
62027

>  <target_id>  (194) 
1

>  <reference_id>  (194) 
27

>  <inspiration_ids>  (194) 
[93, 27]

>  <energy_score>  (194) 
-33.37969636517989

>  <distance_score>  (194) 
1.8675976205133342

>  <path>  (194) 
/opt/xchem-fragalysis-2/maxwin/BulkDock/SCRATCH/511021/C62027-P27/C62027-P27.minimised.mol

>  <scratch_subdir>  (194) 
/opt/xchem-fragalysis-2/maxwin/BulkDock/SCRATCH/511021/C62027-P27

>  <fragmenstein_runtime>  (194) 
3.0284721851348877

>  <fragmenstein_outcome>  (194) 
too moved

>  <fragmenstein_mode>  (194) 
expansion

>  <fragmenstein_error>  (194) 


$$$$
C62029-P93
     RDKit          3D

 39 39  0  0  0  0  0  0  0  0999 V2000
   17.0423   -4.8299   17.1527 C   0  0  0  0  0  0  0  0  0  0  0  0
   17.4009   -5.3581   18.5342 C   0  0  0  0  0  0  0  0  0  0  0  0
   17.2010   -4.3366   19.6537 C   0  0  0  0  0  0  0  0  0  0  0  0
   15.8122   -4.2851   20.2931 C   0  0  0  0  0  0  0  0  0  0  0  0
   14.6528   -4.3294   19.3140 C   0  0  0  0  0  0  0  0  0  0  0  0
   13.9456   -5.2580   19.2368 O   0  0  0  0  0  0  0  0  0  0  0  0
   14.7061   -3.0283   18.4607 N   0  0  0  0  0  0  0  0  0  0  0  0
   13.9900   -2.6633   17.3240 C   0  0  0  0  0  0  0  0  0  0  0  0
   12.9217   -3.4273   16.8732 C   0  0  0  0  0  0  0  0  0  0  0  0
   12.2243   -3.0265   15.7412 C   0  0  0  0  0  0  0  0  0  0  0  0
   12.6114   -1.8863   15.0355 C   0  0  0  0  0  0  0  0  0  0  0  0
   13.7174   -1.1348   15.4375 C   0  0  0  0  0  0  0  0  0  0  0  0
   14.2083    0.0734   14.6597 C   0  0  0  0  0  0  0  0  0  0  0  0
   14.2737   -0.1992   13.1497 C   0  0  0  0  0  0  0  0  0  0  0  0
   13.3754    1.2623   14.8981 N   0  0  0  0  0  0  0  0  0  0  0  0
   13.6383    1.8696   16.1978 C   0  0  0  0  0  0  0  0  0  0  0  0
   14.3808   -1.5274   16.6086 C   0  0  0  0  0  0  0  0  0  0  0  0
   15.9676   -4.7530   16.9995 H   0  0  0  0  0  0  0  0  0  0  0  0
   17.4946   -3.8503   16.9689 H   0  0  0  0  0  0  0  0  0  0  0  0
   17.4208   -5.5168   16.3877 H   0  0  0  0  0  0  0  0  0  0  0  0
   16.8594   -6.2851   18.7489 H   0  0  0  0  0  0  0  0  0  0  0  0
   18.4661   -5.6216   18.5117 H   0  0  0  0  0  0  0  0  0  0  0  0
   17.4802   -3.3385   19.2947 H   0  0  0  0  0  0  0  0  0  0  0  0
   17.9131   -4.5668   20.4571 H   0  0  0  0  0  0  0  0  0  0  0  0
   15.7143   -3.3893   20.9174 H   0  0  0  0  0  0  0  0  0  0  0  0
   15.6983   -5.1431   20.9680 H   0  0  0  0  0  0  0  0  0  0  0  0
   15.4975   -2.4674   18.7481 H   0  0  0  0  0  0  0  0  0  0  0  0
   12.6055   -4.3264   17.3935 H   0  0  0  0  0  0  0  0  0  0  0  0
   11.3754   -3.6118   15.3927 H   0  0  0  0  0  0  0  0  0  0  0  0
   12.0333   -1.6010   14.1575 H   0  0  0  0  0  0  0  0  0  0  0  0
   15.2433    0.2904   14.9589 H   0  0  0  0  0  0  0  0  0  0  0  0
   14.8436   -1.1114   12.9393 H   0  0  0  0  0  0  0  0  0  0  0  0
   13.2794   -0.3149   12.7070 H   0  0  0  0  0  0  0  0  0  0  0  0
   14.7682    0.6286   12.6282 H   0  0  0  0  0  0  0  0  0  0  0  0
   13.5704    1.9547   14.1766 H   0  0  0  0  0  0  0  0  0  0  0  0
   13.0272    2.7718   16.3023 H   0  0  0  0  0  0  0  0  0  0  0  0
   14.6875    2.1651   16.3008 H   0  0  0  0  0  0  0  0  0  0  0  0
   13.3682    1.2040   17.0225 H   0  0  0  0  0  0  0  0  0  0  0  0
   15.2317   -0.9449   16.9536 H   0  0  0  0  0  0  0  0  0  0  0  0
  1  2  1  0
  2  3  1  0
  3  4  1  0
  4  5  1  0
  5  6  2  0
  5  7  1  0
  7  8  1  0
  8  9  2  0
  9 10  1  0
 10 11  2  0
 11 12  1  0
 12 13  1  0
 13 14  1  0
 13 15  1  0
 15 16  1  0
 12 17  2  0
 17  8  1  0
  1 18  1  0
  1 19  1  0
  1 20  1  0
  2 21  1  0
  2 22  1  0
  3 23  1  0
  3 24  1  0
  4 25  1  0
  4 26  1  0
  7 27  1  0
  9 28  1  0
 10 29  1  0
 11 30  1  0
 13 31  1  0
 14 32  1  0
 14 33  1  0
 14 34  1  0
 15 35  1  0
 16 36  1  0
 16 37  1  0
 16 38  1  0
 17 39  1  0
M  END
>  <Energy>  (195) 
18.520848968430357

>  <compound_id>  (195) 
62029

>  <target_id>  (195) 
1

>  <reference_id>  (195) 
93

>  <inspiration_ids>  (195) 
[93, 27]

>  <energy_score>  (195) 
-30.97768772721099

>  <distance_score>  (195) 
1.999438170156162

>  <path>  (195) 
/opt/xchem-fragalysis-2/maxwin/BulkDock/SCRATCH/511021/C62029-P93/C62029-P93.minimised.mol

>  <scratch_subdir>  (195) 
/opt/xchem-fragalysis-2/maxwin/BulkDock/SCRATCH/511021/C62029-P93

>  <fragmenstein_runtime>  (195) 
1.8977961540222168

>  <fragmenstein_outcome>  (195) 
too moved

>  <fragmenstein_mode>  (195) 
expansion

>  <fragmenstein_error>  (195) 


$$$$
C62029-P27
     RDKit          3D

 39 39  0  0  0  0  0  0  0  0999 V2000
   17.1317   -4.6378   17.2116 C   0  0  0  0  0  0  0  0  0  0  0  0
   17.7732   -5.0535   18.5229 C   0  0  0  0  0  0  0  0  0  0  0  0
   16.8152   -5.3677   19.6752 C   0  0  0  0  0  0  0  0  0  0  0  0
   15.8429   -4.2437   20.0450 C   0  0  0  0  0  0  0  0  0  0  0  0
   14.6364   -4.2728   19.1145 C   0  0  0  0  0  0  0  0  0  0  0  0
   13.9261   -5.1985   19.0497 O   0  0  0  0  0  0  0  0  0  0  0  0
   14.6542   -2.9579   18.2871 N   0  0  0  0  0  0  0  0  0  0  0  0
   13.8926   -2.5713   17.1934 C   0  0  0  0  0  0  0  0  0  0  0  0
   12.8036   -3.3177   16.7692 C   0  0  0  0  0  0  0  0  0  0  0  0
   12.0888   -2.9028   15.6536 C   0  0  0  0  0  0  0  0  0  0  0  0
   12.4780   -1.7649   14.9435 C   0  0  0  0  0  0  0  0  0  0  0  0
   13.6004   -1.0285   15.3262 C   0  0  0  0  0  0  0  0  0  0  0  0
   14.0943    0.1829   14.5578 C   0  0  0  0  0  0  0  0  0  0  0  0
   14.0872   -0.0457   13.0400 C   0  0  0  0  0  0  0  0  0  0  0  0
   13.3110    1.3901   14.8588 N   0  0  0  0  0  0  0  0  0  0  0  0
   13.5897    1.9225   16.1876 C   0  0  0  0  0  0  0  0  0  0  0  0
   14.2825   -1.4371   16.4781 C   0  0  0  0  0  0  0  0  0  0  0  0
   17.8461   -4.7777   16.3927 H   0  0  0  0  0  0  0  0  0  0  0  0
   16.2444   -5.2271   16.9795 H   0  0  0  0  0  0  0  0  0  0  0  0
   16.8799   -3.5762   17.2168 H   0  0  0  0  0  0  0  0  0  0  0  0
   18.3787   -5.9506   18.3422 H   0  0  0  0  0  0  0  0  0  0  0  0
   18.4742   -4.2704   18.8364 H   0  0  0  0  0  0  0  0  0  0  0  0
   17.4254   -5.5942   20.5587 H   0  0  0  0  0  0  0  0  0  0  0  0
   16.2655   -6.2874   19.4396 H   0  0  0  0  0  0  0  0  0  0  0  0
   16.3535   -3.2770   20.0644 H   0  0  0  0  0  0  0  0  0  0  0  0
   15.4541   -4.4133   21.0566 H   0  0  0  0  0  0  0  0  0  0  0  0
   15.4575   -2.4035   18.5508 H   0  0  0  0  0  0  0  0  0  0  0  0
   12.4915   -4.2165   17.2919 H   0  0  0  0  0  0  0  0  0  0  0  0
   11.2284   -3.4779   15.3159 H   0  0  0  0  0  0  0  0  0  0  0  0
   11.8860   -1.4691   14.0784 H   0  0  0  0  0  0  0  0  0  0  0  0
   15.1467    0.3621   14.8187 H   0  0  0  0  0  0  0  0  0  0  0  0
   14.6040   -0.9760   12.7780 H   0  0  0  0  0  0  0  0  0  0  0  0
   13.0706   -0.0993   12.6390 H   0  0  0  0  0  0  0  0  0  0  0  0
   14.5976    0.7749   12.5226 H   0  0  0  0  0  0  0  0  0  0  0  0
   13.5319    2.1094   14.1722 H   0  0  0  0  0  0  0  0  0  0  0  0
   13.0362    2.8576   16.3219 H   0  0  0  0  0  0  0  0  0  0  0  0
   14.6535    2.1446   16.3203 H   0  0  0  0  0  0  0  0  0  0  0  0
   13.2590    1.2430   16.9784 H   0  0  0  0  0  0  0  0  0  0  0  0
   15.1504   -0.8698   16.8058 H   0  0  0  0  0  0  0  0  0  0  0  0
  1  2  1  0
  2  3  1  0
  3  4  1  0
  4  5  1  0
  5  6  2  0
  5  7  1  0
  7  8  1  0
  8  9  2  0
  9 10  1  0
 10 11  2  0
 11 12  1  0
 12 13  1  0
 13 14  1  0
 13 15  1  0
 15 16  1  0
 12 17  2  0
 17  8  1  0
  1 18  1  0
  1 19  1  0
  1 20  1  0
  2 21  1  0
  2 22  1  0
  3 23  1  0
  3 24  1  0
  4 25  1  0
  4 26  1  0
  7 27  1  0
  9 28  1  0
 10 29  1  0
 11 30  1  0
 13 31  1  0
 14 32  1  0
 14 33  1  0
 14 34  1  0
 15 35  1  0
 16 36  1  0
 16 37  1  0
 16 38  1  0
 17 39  1  0
M  END
>  <Energy>  (196) 
18.630786272862128

>  <compound_id>  (196) 
62029

>  <target_id>  (196) 
1

>  <reference_id>  (196) 
27

>  <inspiration_ids>  (196) 
[93, 27]

>  <energy_score>  (196) 
-30.867750422780787

>  <distance_score>  (196) 
2.0321911635712198

>  <path>  (196) 
/opt/xchem-fragalysis-2/maxwin/BulkDock/SCRATCH/511021/C62029-P27/C62029-P27.minimised.mol

>  <scratch_subdir>  (196) 
/opt/xchem-fragalysis-2/maxwin/BulkDock/SCRATCH/511021/C62029-P27

>  <fragmenstein_runtime>  (196) 
2.357370615005493

>  <fragmenstein_outcome>  (196) 
too moved

>  <fragmenstein_mode>  (196) 
expansion

>  <fragmenstein_error>  (196) 


$$$$
C62030-P93
     RDKit          3D

 30 30  0  0  0  0  0  0  0  0999 V2000
   15.3821   -1.1455   15.2852 C   0  0  0  0  0  0  0  0  0  0  0  0
   15.7439   -0.9922   16.6915 N   0  0  0  0  0  0  0  0  0  0  0  0
   16.7627   -1.9709   17.1633 C   0  0  0  0  0  0  0  0  0  0  0  0
   17.5888   -1.3328   18.2692 C   0  0  0  0  0  0  0  0  0  0  0  0
   16.0734   -3.2339   17.6641 C   0  0  0  0  0  0  0  0  0  0  0  0
   15.7006   -4.1503   16.6890 C   0  0  0  0  0  0  0  0  0  0  0  0
   14.3693   -4.5189   16.6864 C   0  0  0  0  0  0  0  0  0  0  0  0
   13.5316   -3.9479   17.6214 C   0  0  0  0  0  0  0  0  0  0  0  0
   12.7805   -2.8889   17.0898 N   0  0  0  0  0  0  0  0  0  0  0  0
   12.1276   -2.7154   15.6797 C   0  0  0  0  0  0  0  0  0  0  0  0
   12.0539   -3.4620   14.7817 O   0  0  0  0  0  0  0  0  0  0  0  0
   11.6527   -1.2516   15.6353 C   0  0  0  0  0  0  0  0  0  0  0  0
   10.3403   -1.1098   15.9867 F   0  0  0  0  0  0  0  0  0  0  0  0
   11.8289   -0.6672   14.4278 F   0  0  0  0  0  0  0  0  0  0  0  0
   12.3477   -0.4732   16.5277 F   0  0  0  0  0  0  0  0  0  0  0  0
   14.0673   -3.6758   18.8758 C   0  0  0  0  0  0  0  0  0  0  0  0
   15.3826   -3.2382   18.8886 C   0  0  0  0  0  0  0  0  0  0  0  0
   14.6544   -0.3736   15.0160 H   0  0  0  0  0  0  0  0  0  0  0  0
   16.2562   -1.0150   14.6389 H   0  0  0  0  0  0  0  0  0  0  0  0
   14.9249   -2.1108   15.0656 H   0  0  0  0  0  0  0  0  0  0  0  0
   16.1162   -0.0515   16.8167 H   0  0  0  0  0  0  0  0  0  0  0  0
   17.4588   -2.2236   16.3523 H   0  0  0  0  0  0  0  0  0  0  0  0
   18.1920   -0.5089   17.8692 H   0  0  0  0  0  0  0  0  0  0  0  0
   18.2804   -2.0560   18.7167 H   0  0  0  0  0  0  0  0  0  0  0  0
   16.9749   -0.9131   19.0744 H   0  0  0  0  0  0  0  0  0  0  0  0
   16.2771   -4.2882   15.7772 H   0  0  0  0  0  0  0  0  0  0  0  0
   13.9418   -4.9851   15.8168 H   0  0  0  0  0  0  0  0  0  0  0  0
   12.5925   -2.0760   17.6499 H   0  0  0  0  0  0  0  0  0  0  0  0
   13.4251   -3.4403   19.7216 H   0  0  0  0  0  0  0  0  0  0  0  0
   15.7143   -2.6503   19.7396 H   0  0  0  0  0  0  0  0  0  0  0  0
  1  2  1  0
  2  3  1  0
  3  4  1  0
  3  5  1  0
  5  6  2  0
  6  7  1  0
  7  8  2  0
  8  9  1  0
  9 10  1  0
 10 11  2  0
 10 12  1  0
 12 13  1  0
 12 14  1  0
 12 15  1  0
  8 16  1  0
 16 17  2  0
 17  5  1  0
  1 18  1  0
  1 19  1  0
  1 20  1  0
  2 21  1  0
  3 22  1  0
  4 23  1  0
  4 24  1  0
  4 25  1  0
  6 26  1  0
  7 27  1  0
  9 28  1  0
 16 29  1  0
 17 30  1  0
M  END
>  <Energy>  (197) 
169.1097971606932

>  <compound_id>  (197) 
62030

>  <target_id>  (197) 
1

>  <reference_id>  (197) 
93

>  <inspiration_ids>  (197) 
[93, 27]

>  <energy_score>  (197) 
51.37301673632136

>  <distance_score>  (197) 
1.979444737291888

>  <path>  (197) 
/opt/xchem-fragalysis-2/maxwin/BulkDock/SCRATCH/511021/C62030-P93/C62030-P93.minimised.mol

>  <scratch_subdir>  (197) 
/opt/xchem-fragalysis-2/maxwin/BulkDock/SCRATCH/511021/C62030-P93

>  <fragmenstein_runtime>  (197) 
18.577152252197266

>  <fragmenstein_outcome>  (197) 
too moved

>  <fragmenstein_mode>  (197) 
expansion

>  <fragmenstein_error>  (197) 


$$$$
C62030-P27
     RDKit          3D

 30 30  0  0  0  0  0  0  0  0999 V2000
   15.3887   -1.3558   15.1705 C   0  0  0  0  0  0  0  0  0  0  0  0
   15.8536   -1.1115   16.5321 N   0  0  0  0  0  0  0  0  0  0  0  0
   16.8765   -2.0872   17.0042 C   0  0  0  0  0  0  0  0  0  0  0  0
   17.8336   -1.3776   17.9491 C   0  0  0  0  0  0  0  0  0  0  0  0
   16.1970   -3.2611   17.7064 C   0  0  0  0  0  0  0  0  0  0  0  0
   15.6692   -4.2426   16.8742 C   0  0  0  0  0  0  0  0  0  0  0  0
   14.3191   -4.5008   17.0265 C   0  0  0  0  0  0  0  0  0  0  0  0
   13.6295   -3.7574   17.9638 C   0  0  0  0  0  0  0  0  0  0  0  0
   12.9194   -2.7092   17.3664 N   0  0  0  0  0  0  0  0  0  0  0  0
   12.0786   -2.6746   16.0492 C   0  0  0  0  0  0  0  0  0  0  0  0
   11.7915   -3.5360   15.3103 O   0  0  0  0  0  0  0  0  0  0  0  0
   11.7520   -1.1859   15.8153 C   0  0  0  0  0  0  0  0  0  0  0  0
   10.4417   -0.8962   16.0691 F   0  0  0  0  0  0  0  0  0  0  0  0
   12.0267   -0.7785   14.5527 F   0  0  0  0  0  0  0  0  0  0  0  0
   12.4762   -0.3671   16.6430 F   0  0  0  0  0  0  0  0  0  0  0  0
   14.2932   -3.3950   19.1283 C   0  0  0  0  0  0  0  0  0  0  0  0
   15.6354   -3.0896   18.9834 C   0  0  0  0  0  0  0  0  0  0  0  0
   14.6753   -0.5754   14.8891 H   0  0  0  0  0  0  0  0  0  0  0  0
   16.2188   -1.3163   14.4578 H   0  0  0  0  0  0  0  0  0  0  0  0
   14.8800   -2.3147   15.0653 H   0  0  0  0  0  0  0  0  0  0  0  0
   16.2592   -0.1766   16.5594 H   0  0  0  0  0  0  0  0  0  0  0  0
   17.4765   -2.4579   16.1623 H   0  0  0  0  0  0  0  0  0  0  0  0
   18.5385   -2.0827   18.4047 H   0  0  0  0  0  0  0  0  0  0  0  0
   17.3214   -0.8449   18.7584 H   0  0  0  0  0  0  0  0  0  0  0  0
   18.4250   -0.6316   17.4047 H   0  0  0  0  0  0  0  0  0  0  0  0
   16.1407   -4.5003   15.9283 H   0  0  0  0  0  0  0  0  0  0  0  0
   13.7741   -4.9606   16.2120 H   0  0  0  0  0  0  0  0  0  0  0  0
   12.9038   -1.7965   17.8020 H   0  0  0  0  0  0  0  0  0  0  0  0
   13.7495   -2.9948   19.9813 H   0  0  0  0  0  0  0  0  0  0  0  0
   16.0915   -2.4470   19.7309 H   0  0  0  0  0  0  0  0  0  0  0  0
  1  2  1  0
  2  3  1  0
  3  4  1  0
  3  5  1  0
  5  6  2  0
  6  7  1  0
  7  8  2  0
  8  9  1  0
  9 10  1  0
 10 11  2  0
 10 12  1  0
 12 13  1  0
 12 14  1  0
 12 15  1  0
  8 16  1  0
 16 17  2  0
 17  5  1  0
  1 18  1  0
  1 19  1  0
  1 20  1  0
  2 21  1  0
  3 22  1  0
  4 23  1  0
  4 24  1  0
  4 25  1  0
  6 26  1  0
  7 27  1  0
  9 28  1  0
 16 29  1  0
 17 30  1  0
M  END
>  <Energy>  (198) 
170.61725492992056

>  <compound_id>  (198) 
62030

>  <target_id>  (198) 
1

>  <reference_id>  (198) 
27

>  <inspiration_ids>  (198) 
[93, 27]

>  <energy_score>  (198) 
52.880474505549444

>  <distance_score>  (198) 
1.937449938606452

>  <path>  (198) 
/opt/xchem-fragalysis-2/maxwin/BulkDock/SCRATCH/511021/C62030-P27/C62030-P27.minimised.mol

>  <scratch_subdir>  (198) 
/opt/xchem-fragalysis-2/maxwin/BulkDock/SCRATCH/511021/C62030-P27

>  <fragmenstein_runtime>  (198) 
18.135318517684937

>  <fragmenstein_outcome>  (198) 
too moved

>  <fragmenstein_mode>  (198) 
expansion

>  <fragmenstein_error>  (198) 


$$$$
C62032-P93
     RDKit          3D

 39 39  0  0  0  0  0  0  0  0999 V2000
   11.8296    0.5035   15.4439 C   0  0  0  0  0  0  0  0  0  0  0  0
   13.2346    0.7720   15.9661 C   0  0  0  0  0  0  0  0  0  0  0  0
   13.9383   -0.4612   16.5387 C   0  0  0  0  0  0  0  0  0  0  0  0
   13.8702   -1.6993   15.6435 C   0  0  0  0  0  0  0  0  0  0  0  0
   15.0825   -2.6141   15.7940 C   0  0  0  0  0  0  0  0  0  0  0  0
   15.8483   -2.7765   14.9248 O   0  0  0  0  0  0  0  0  0  0  0  0
   15.0654   -3.1841   17.2428 N   0  0  0  0  0  0  0  0  0  0  0  0
   15.9041   -4.1092   17.8608 C   0  0  0  0  0  0  0  0  0  0  0  0
   16.8907   -4.7589   17.1221 C   0  0  0  0  0  0  0  0  0  0  0  0
   17.7407   -5.6775   17.7366 C   0  0  0  0  0  0  0  0  0  0  0  0
   17.6140   -5.9519   19.0937 C   0  0  0  0  0  0  0  0  0  0  0  0
   16.6477   -5.2914   19.8454 C   0  0  0  0  0  0  0  0  0  0  0  0
   15.7889   -4.3471   19.2492 C   0  0  0  0  0  0  0  0  0  0  0  0
   14.8116   -3.6371   20.1718 C   0  0  0  0  0  0  0  0  0  0  0  0
   13.5268   -4.4607   20.2623 C   0  0  0  0  0  0  0  0  0  0  0  0
   14.4826   -2.2461   19.7912 N   0  0  0  0  0  0  0  0  0  0  0  0
   15.6524   -1.3713   19.6630 C   0  0  0  0  0  0  0  0  0  0  0  0
   11.2205   -0.0272   16.1797 H   0  0  0  0  0  0  0  0  0  0  0  0
   11.8526   -0.0964   14.5288 H   0  0  0  0  0  0  0  0  0  0  0  0
   11.3311    1.4481   15.2039 H   0  0  0  0  0  0  0  0  0  0  0  0
   13.1899    1.5428   16.7445 H   0  0  0  0  0  0  0  0  0  0  0  0
   13.8382    1.1852   15.1490 H   0  0  0  0  0  0  0  0  0  0  0  0
   13.4854   -0.6978   17.5052 H   0  0  0  0  0  0  0  0  0  0  0  0
   14.9825   -0.1955   16.7443 H   0  0  0  0  0  0  0  0  0  0  0  0
   13.8372   -1.4038   14.5875 H   0  0  0  0  0  0  0  0  0  0  0  0
   12.9609   -2.2783   15.8422 H   0  0  0  0  0  0  0  0  0  0  0  0
   14.2940   -2.7710   17.7619 H   0  0  0  0  0  0  0  0  0  0  0  0
   17.0113   -4.5716   16.0579 H   0  0  0  0  0  0  0  0  0  0  0  0
   18.5016   -6.1840   17.1480 H   0  0  0  0  0  0  0  0  0  0  0  0
   18.2744   -6.6749   19.5655 H   0  0  0  0  0  0  0  0  0  0  0  0
   16.5774   -5.5069   20.9097 H   0  0  0  0  0  0  0  0  0  0  0  0
   15.2520   -3.5914   21.1774 H   0  0  0  0  0  0  0  0  0  0  0  0
   13.7336   -5.4756   20.6202 H   0  0  0  0  0  0  0  0  0  0  0  0
   12.8167   -4.0139   20.9639 H   0  0  0  0  0  0  0  0  0  0  0  0
   13.0421   -4.5506   19.2844 H   0  0  0  0  0  0  0  0  0  0  0  0
   13.9134   -1.8795   20.5645 H   0  0  0  0  0  0  0  0  0  0  0  0
   16.3375   -1.6410   18.8577 H   0  0  0  0  0  0  0  0  0  0  0  0
   16.2162   -1.3421   20.6015 H   0  0  0  0  0  0  0  0  0  0  0  0
   15.3068   -0.3527   19.4587 H   0  0  0  0  0  0  0  0  0  0  0  0
  1  2  1  0
  2  3  1  0
  3  4  1  0
  4  5  1  0
  5  6  2  0
  5  7  1  0
  7  8  1  0
  8  9  2  0
  9 10  1  0
 10 11  2  0
 11 12  1  0
 12 13  2  0
 13 14  1  0
 14 15  1  0
 14 16  1  0
 16 17  1  0
 13  8  1  0
  1 18  1  0
  1 19  1  0
  1 20  1  0
  2 21  1  0
  2 22  1  0
  3 23  1  0
  3 24  1  0
  4 25  1  0
  4 26  1  0
  7 27  1  0
  9 28  1  0
 10 29  1  0
 11 30  1  0
 12 31  1  0
 14 32  1  0
 15 33  1  0
 15 34  1  0
 15 35  1  0
 16 36  1  0
 17 37  1  0
 17 38  1  0
 17 39  1  0
M  END
>  <Energy>  (199) 
19.986804904862847

>  <compound_id>  (199) 
62032

>  <target_id>  (199) 
1

>  <reference_id>  (199) 
93

>  <inspiration_ids>  (199) 
[93, 27]

>  <energy_score>  (199) 
-6.046953317390285

>  <distance_score>  (199) 
1.7475578770627358

>  <path>  (199) 
/opt/xchem-fragalysis-2/maxwin/BulkDock/SCRATCH/511021/C62032-P93/C62032-P93.minimised.mol

>  <scratch_subdir>  (199) 
/opt/xchem-fragalysis-2/maxwin/BulkDock/SCRATCH/511021/C62032-P93

>  <fragmenstein_runtime>  (199) 
3.706453800201416

>  <fragmenstein_outcome>  (199) 
too moved

>  <fragmenstein_mode>  (199) 
expansion

>  <fragmenstein_error>  (199) 


$$$$
C62032-P27
     RDKit          3D

 39 39  0  0  0  0  0  0  0  0999 V2000
   12.2337    1.1679   15.5262 C   0  0  0  0  0  0  0  0  0  0  0  0
   13.3652    1.0205   16.5301 C   0  0  0  0  0  0  0  0  0  0  0  0
   14.3222   -0.1263   16.2229 C   0  0  0  0  0  0  0  0  0  0  0  0
   13.6551   -1.4877   16.0458 C   0  0  0  0  0  0  0  0  0  0  0  0
   14.7377   -2.5613   16.0127 C   0  0  0  0  0  0  0  0  0  0  0  0
   15.4156   -2.7411   15.0775 O   0  0  0  0  0  0  0  0  0  0  0  0
   14.7650   -3.2239   17.4190 N   0  0  0  0  0  0  0  0  0  0  0  0
   15.6571   -4.1378   17.9695 C   0  0  0  0  0  0  0  0  0  0  0  0
   16.5994   -4.7797   17.1709 C   0  0  0  0  0  0  0  0  0  0  0  0
   17.5020   -5.6769   17.7400 C   0  0  0  0  0  0  0  0  0  0  0  0
   17.4687   -5.9348   19.1071 C   0  0  0  0  0  0  0  0  0  0  0  0
   16.5436   -5.2795   19.9152 C   0  0  0  0  0  0  0  0  0  0  0  0
   15.6343   -4.3571   19.3655 C   0  0  0  0  0  0  0  0  0  0  0  0
   14.7009   -3.6370   20.3309 C   0  0  0  0  0  0  0  0  0  0  0  0
   13.4597   -4.5007   20.5591 C   0  0  0  0  0  0  0  0  0  0  0  0
   14.2885   -2.2755   19.9084 N   0  0  0  0  0  0  0  0  0  0  0  0
   15.4199   -1.3529   19.7442 C   0  0  0  0  0  0  0  0  0  0  0  0
   11.5600    0.3059   15.5528 H   0  0  0  0  0  0  0  0  0  0  0  0
   12.6225    1.2737   14.5086 H   0  0  0  0  0  0  0  0  0  0  0  0
   11.6399    2.0581   15.7575 H   0  0  0  0  0  0  0  0  0  0  0  0
   12.9554    0.8829   17.5332 H   0  0  0  0  0  0  0  0  0  0  0  0
   13.9378    1.9554   16.5567 H   0  0  0  0  0  0  0  0  0  0  0  0
   15.0711   -0.1750   17.0219 H   0  0  0  0  0  0  0  0  0  0  0  0
   14.8815    0.1132   15.3088 H   0  0  0  0  0  0  0  0  0  0  0  0
   13.1093   -1.5398   15.0968 H   0  0  0  0  0  0  0  0  0  0  0  0
   12.9245   -1.6763   16.8383 H   0  0  0  0  0  0  0  0  0  0  0  0
   14.0810   -2.7696   18.0233 H   0  0  0  0  0  0  0  0  0  0  0  0
   16.6420   -4.6010   16.0993 H   0  0  0  0  0  0  0  0  0  0  0  0
   18.2299   -6.1809   17.1091 H   0  0  0  0  0  0  0  0  0  0  0  0
   18.1706   -6.6415   19.5425 H   0  0  0  0  0  0  0  0  0  0  0  0
   16.5467   -5.4805   20.9845 H   0  0  0  0  0  0  0  0  0  0  0  0
   15.2137   -3.5271   21.2963 H   0  0  0  0  0  0  0  0  0  0  0  0
   13.7285   -5.4645   21.0068 H   0  0  0  0  0  0  0  0  0  0  0  0
   12.7533   -4.0142   21.2395 H   0  0  0  0  0  0  0  0  0  0  0  0
   12.9475   -4.7155   19.6161 H   0  0  0  0  0  0  0  0  0  0  0  0
   13.6997   -1.9095   20.6676 H   0  0  0  0  0  0  0  0  0  0  0  0
   16.1280   -1.6394   18.9644 H   0  0  0  0  0  0  0  0  0  0  0  0
   15.9686   -1.2473   20.6863 H   0  0  0  0  0  0  0  0  0  0  0  0
   15.0291   -0.3648   19.4816 H   0  0  0  0  0  0  0  0  0  0  0  0
  1  2  1  0
  2  3  1  0
  3  4  1  0
  4  5  1  0
  5  6  2  0
  5  7  1  0
  7  8  1  0
  8  9  2  0
  9 10  1  0
 10 11  2  0
 11 12  1  0
 12 13  2  0
 13 14  1  0
 14 15  1  0
 14 16  1  0
 16 17  1  0
 13  8  1  0
  1 18  1  0
  1 19  1  0
  1 20  1  0
  2 21  1  0
  2 22  1  0
  3 23  1  0
  3 24  1  0
  4 25  1  0
  4 26  1  0
  7 27  1  0
  9 28  1  0
 10 29  1  0
 11 30  1  0
 12 31  1  0
 14 32  1  0
 15 33  1  0
 15 34  1  0
 15 35  1  0
 16 36  1  0
 17 37  1  0
 17 38  1  0
 17 39  1  0
M  END
>  <Energy>  (200) 
18.855669644584822

>  <compound_id>  (200) 
62032

>  <target_id>  (200) 
1

>  <reference_id>  (200) 
27

>  <inspiration_ids>  (200) 
[93, 27]

>  <energy_score>  (200) 
-7.178088577667991

>  <distance_score>  (200) 
1.6523411609391703

>  <path>  (200) 
/opt/xchem-fragalysis-2/maxwin/BulkDock/SCRATCH/511021/C62032-P27/C62032-P27.minimised.mol

>  <scratch_subdir>  (200) 
/opt/xchem-fragalysis-2/maxwin/BulkDock/SCRATCH/511021/C62032-P27

>  <fragmenstein_runtime>  (200) 
3.0690503120422363

>  <fragmenstein_outcome>  (200) 
too moved

>  <fragmenstein_mode>  (200) 
expansion

>  <fragmenstein_error>  (200) 


$$$$
C62034-P93
     RDKit          3D

 31 31  0  0  0  0  0  0  0  0999 V2000
   17.3707   -6.5038   19.4978 C   0  0  0  0  0  0  0  0  0  0  0  0
   17.1467   -5.6831   18.4625 C   0  0  0  0  0  0  0  0  0  0  0  0
   16.2223   -4.5430   18.6935 C   0  0  0  0  0  0  0  0  0  0  0  0
   15.8625   -4.2779   19.7729 O   0  0  0  0  0  0  0  0  0  0  0  0
   15.8955   -3.8731   17.3307 N   0  0  0  0  0  0  0  0  0  0  0  0
   15.1640   -2.7277   17.0413 C   0  0  0  0  0  0  0  0  0  0  0  0
   14.6906   -1.9996   18.1194 C   0  0  0  0  0  0  0  0  0  0  0  0
   14.1145   -0.7659   17.9211 C   0  0  0  0  0  0  0  0  0  0  0  0
   13.8839   -0.2990   16.6447 C   0  0  0  0  0  0  0  0  0  0  0  0
   14.3562   -0.9886   15.5252 C   0  0  0  0  0  0  0  0  0  0  0  0
   14.3331   -0.3403   14.1464 C   0  0  0  0  0  0  0  0  0  0  0  0
   13.6541   -1.2409   13.1162 C   0  0  0  0  0  0  0  0  0  0  0  0
   13.6609    0.9714   14.0769 N   0  0  0  0  0  0  0  0  0  0  0  0
   14.4626    2.0758   14.5837 C   0  0  0  0  0  0  0  0  0  0  0  0
   14.9885   -2.2345   15.7411 C   0  0  0  0  0  0  0  0  0  0  0  0
   18.0386   -7.3527   19.3952 H   0  0  0  0  0  0  0  0  0  0  0  0
   16.9001   -6.3624   20.4678 H   0  0  0  0  0  0  0  0  0  0  0  0
   17.6258   -5.8282   17.5059 H   0  0  0  0  0  0  0  0  0  0  0  0
   16.3123   -4.4087   16.5824 H   0  0  0  0  0  0  0  0  0  0  0  0
   14.8286   -2.3253   19.1462 H   0  0  0  0  0  0  0  0  0  0  0  0
   13.8654   -0.1475   18.7780 H   0  0  0  0  0  0  0  0  0  0  0  0
   13.3841    0.6604   16.5672 H   0  0  0  0  0  0  0  0  0  0  0  0
   15.3763   -0.2096   13.8280 H   0  0  0  0  0  0  0  0  0  0  0  0
   12.6143   -1.4574   13.3868 H   0  0  0  0  0  0  0  0  0  0  0  0
   13.6702   -0.7640   12.1303 H   0  0  0  0  0  0  0  0  0  0  0  0
   14.1771   -2.1949   13.0052 H   0  0  0  0  0  0  0  0  0  0  0  0
   12.7478    0.9201   14.5221 H   0  0  0  0  0  0  0  0  0  0  0  0
   13.8696    2.9954   14.5467 H   0  0  0  0  0  0  0  0  0  0  0  0
   14.8180    1.9528   15.6086 H   0  0  0  0  0  0  0  0  0  0  0  0
   15.3352    2.2336   13.9408 H   0  0  0  0  0  0  0  0  0  0  0  0
   15.4153   -2.7779   14.9026 H   0  0  0  0  0  0  0  0  0  0  0  0
  1  2  2  0
  2  3  1  0
  3  4  2  0
  3  5  1  0
  5  6  1  0
  6  7  2  0
  7  8  1  0
  8  9  2  0
  9 10  1  0
 10 11  1  0
 11 12  1  0
 11 13  1  0
 13 14  1  0
 10 15  2  0
 15  6  1  0
  1 16  1  0
  1 17  1  0
  2 18  1  0
  5 19  1  0
  7 20  1  0
  8 21  1  0
  9 22  1  0
 11 23  1  0
 12 24  1  0
 12 25  1  0
 12 26  1  0
 13 27  1  0
 14 28  1  0
 14 29  1  0
 14 30  1  0
 15 31  1  0
M  END
>  <Energy>  (201) 
26.005309302542368

>  <compound_id>  (201) 
62034

>  <target_id>  (201) 
1

>  <reference_id>  (201) 
93

>  <inspiration_ids>  (201) 
[93, 27]

>  <energy_score>  (201) 
-0.2773022084351169

>  <distance_score>  (201) 
2.7291330091504853

>  <path>  (201) 
/opt/xchem-fragalysis-2/maxwin/BulkDock/SCRATCH/511021/C62034-P93/C62034-P93.minimised.mol

>  <scratch_subdir>  (201) 
/opt/xchem-fragalysis-2/maxwin/BulkDock/SCRATCH/511021/C62034-P93

>  <fragmenstein_runtime>  (201) 
1.696800708770752

>  <fragmenstein_outcome>  (201) 
too moved

>  <fragmenstein_mode>  (201) 
expansion

>  <fragmenstein_error>  (201) 


$$$$
C62034-P27
     RDKit          3D

 31 31  0  0  0  0  0  0  0  0999 V2000
   17.1824   -6.5501   19.5735 C   0  0  0  0  0  0  0  0  0  0  0  0
   16.8871   -5.7894   18.5109 C   0  0  0  0  0  0  0  0  0  0  0  0
   16.0208   -4.6043   18.7436 C   0  0  0  0  0  0  0  0  0  0  0  0
   15.7188   -4.2901   19.8275 O   0  0  0  0  0  0  0  0  0  0  0  0
   15.6710   -3.9595   17.3744 N   0  0  0  0  0  0  0  0  0  0  0  0
   14.9836   -2.7876   17.0781 C   0  0  0  0  0  0  0  0  0  0  0  0
   14.4604   -2.0753   18.1435 C   0  0  0  0  0  0  0  0  0  0  0  0
   13.9287   -0.8218   17.9382 C   0  0  0  0  0  0  0  0  0  0  0  0
   13.7751   -0.3245   16.6611 C   0  0  0  0  0  0  0  0  0  0  0  0
   14.2902   -1.0036   15.5556 C   0  0  0  0  0  0  0  0  0  0  0  0
   14.3250   -0.3496   14.1808 C   0  0  0  0  0  0  0  0  0  0  0  0
   13.6094   -1.2147   13.1437 C   0  0  0  0  0  0  0  0  0  0  0  0
   13.7243    0.9957   14.1042 N   0  0  0  0  0  0  0  0  0  0  0  0
   14.5575    2.0501   14.6639 C   0  0  0  0  0  0  0  0  0  0  0  0
   14.8946   -2.2604   15.7827 C   0  0  0  0  0  0  0  0  0  0  0  0
   17.8072   -7.4306   19.4652 H   0  0  0  0  0  0  0  0  0  0  0  0
   16.8136   -6.3267   20.5717 H   0  0  0  0  0  0  0  0  0  0  0  0
   17.2623   -6.0238   17.5262 H   0  0  0  0  0  0  0  0  0  0  0  0
   16.1666   -4.4414   16.6376 H   0  0  0  0  0  0  0  0  0  0  0  0
   14.5259   -2.4302   19.1678 H   0  0  0  0  0  0  0  0  0  0  0  0
   13.6556   -0.2064   18.7897 H   0  0  0  0  0  0  0  0  0  0  0  0
   13.2982    0.6463   16.5759 H   0  0  0  0  0  0  0  0  0  0  0  0
   15.3777   -0.2743   13.8762 H   0  0  0  0  0  0  0  0  0  0  0  0
   12.5533   -1.3625   13.3978 H   0  0  0  0  0  0  0  0  0  0  0  0
   13.6707   -0.7465   12.1553 H   0  0  0  0  0  0  0  0  0  0  0  0
   14.0703   -2.2026   13.0500 H   0  0  0  0  0  0  0  0  0  0  0  0
   12.7930    0.9861   14.5134 H   0  0  0  0  0  0  0  0  0  0  0  0
   14.8425    1.9029   15.7073 H   0  0  0  0  0  0  0  0  0  0  0  0
   15.4741    2.1605   14.0746 H   0  0  0  0  0  0  0  0  0  0  0  0
   14.0210    3.0022   14.5992 H   0  0  0  0  0  0  0  0  0  0  0  0
   15.3631   -2.7882   14.9568 H   0  0  0  0  0  0  0  0  0  0  0  0
  1  2  2  0
  2  3  1  0
  3  4  2  0
  3  5  1  0
  5  6  1  0
  6  7  2  0
  7  8  1  0
  8  9  2  0
  9 10  1  0
 10 11  1  0
 11 12  1  0
 11 13  1  0
 13 14  1  0
 10 15  2  0
 15  6  1  0
  1 16  1  0
  1 17  1  0
  2 18  1  0
  5 19  1  0
  7 20  1  0
  8 21  1  0
  9 22  1  0
 11 23  1  0
 12 24  1  0
 12 25  1  0
 12 26  1  0
 13 27  1  0
 14 28  1  0
 14 29  1  0
 14 30  1  0
 15 31  1  0
M  END
>  <Energy>  (202) 
25.36087313216342

>  <compound_id>  (202) 
62034

>  <target_id>  (202) 
1

>  <reference_id>  (202) 
27

>  <inspiration_ids>  (202) 
[93, 27]

>  <energy_score>  (202) 
-0.9217383788135578

>  <distance_score>  (202) 
2.6106040808264943

>  <path>  (202) 
/opt/xchem-fragalysis-2/maxwin/BulkDock/SCRATCH/511021/C62034-P27/C62034-P27.minimised.mol

>  <scratch_subdir>  (202) 
/opt/xchem-fragalysis-2/maxwin/BulkDock/SCRATCH/511021/C62034-P27

>  <fragmenstein_runtime>  (202) 
1.7708873748779297

>  <fragmenstein_outcome>  (202) 
too moved

>  <fragmenstein_mode>  (202) 
expansion

>  <fragmenstein_error>  (202) 


$$$$
C62035-P93
     RDKit          3D

 29 29  0  0  0  0  0  0  0  0999 V2000
   16.8186   -4.6327   20.7964 C   0  0  0  0  0  0  0  0  0  0  0  0
   15.8921   -4.4947   20.0465 C   0  0  0  0  0  0  0  0  0  0  0  0
   14.7634   -4.3967   19.1480 C   0  0  0  0  0  0  0  0  0  0  0  0
   13.9367   -5.2128   19.2260 O   0  0  0  0  0  0  0  0  0  0  0  0
   14.8843   -3.1871   18.2074 N   0  0  0  0  0  0  0  0  0  0  0  0
   14.0887   -2.7917   17.1364 C   0  0  0  0  0  0  0  0  0  0  0  0
   12.9548   -3.5105   16.7800 C   0  0  0  0  0  0  0  0  0  0  0  0
   12.1664   -3.0658   15.7278 C   0  0  0  0  0  0  0  0  0  0  0  0
   12.5169   -1.9188   15.0167 C   0  0  0  0  0  0  0  0  0  0  0  0
   13.6724   -1.1975   15.3311 C   0  0  0  0  0  0  0  0  0  0  0  0
   14.0312    0.0276   14.5069 C   0  0  0  0  0  0  0  0  0  0  0  0
   15.5359    0.2209   14.2720 C   0  0  0  0  0  0  0  0  0  0  0  0
   13.3567    1.2482   14.9795 N   0  0  0  0  0  0  0  0  0  0  0  0
   13.8155    1.7516   16.2653 C   0  0  0  0  0  0  0  0  0  0  0  0
   14.4413   -1.6455   16.4131 C   0  0  0  0  0  0  0  0  0  0  0  0
   17.6328   -4.7687   21.4697 H   0  0  0  0  0  0  0  0  0  0  0  0
   15.6922   -2.6365   18.4677 H   0  0  0  0  0  0  0  0  0  0  0  0
   12.6535   -4.4082   17.3112 H   0  0  0  0  0  0  0  0  0  0  0  0
   11.2720   -3.6197   15.4482 H   0  0  0  0  0  0  0  0  0  0  0  0
   11.8721   -1.5962   14.1987 H   0  0  0  0  0  0  0  0  0  0  0  0
   13.6203   -0.1584   13.5040 H   0  0  0  0  0  0  0  0  0  0  0  0
   15.9721   -0.6768   13.8188 H   0  0  0  0  0  0  0  0  0  0  0  0
   16.0901    0.4240   15.1934 H   0  0  0  0  0  0  0  0  0  0  0  0
   15.7150    1.0566   13.5861 H   0  0  0  0  0  0  0  0  0  0  0  0
   13.4834    1.9776   14.2794 H   0  0  0  0  0  0  0  0  0  0  0  0
   14.8697    2.0422   16.2461 H   0  0  0  0  0  0  0  0  0  0  0  0
   13.6511    1.0329   17.0728 H   0  0  0  0  0  0  0  0  0  0  0  0
   13.2386    2.6467   16.5207 H   0  0  0  0  0  0  0  0  0  0  0  0
   15.3305   -1.0930   16.7026 H   0  0  0  0  0  0  0  0  0  0  0  0
  1  2  3  0
  2  3  1  0
  3  4  2  0
  3  5  1  0
  5  6  1  0
  6  7  2  0
  7  8  1  0
  8  9  2  0
  9 10  1  0
 10 11  1  0
 11 12  1  0
 11 13  1  0
 13 14  1  0
 10 15  2  0
 15  6  1  0
  1 16  1  0
  5 17  1  0
  7 18  1  0
  8 19  1  0
  9 20  1  0
 11 21  1  0
 12 22  1  0
 12 23  1  0
 12 24  1  0
 13 25  1  0
 14 26  1  0
 14 27  1  0
 14 28  1  0
 15 29  1  0
M  END
>  <Energy>  (203) 
14.118195302976677

>  <compound_id>  (203) 
62035

>  <target_id>  (203) 
1

>  <reference_id>  (203) 
93

>  <inspiration_ids>  (203) 
[93, 27]

>  <energy_score>  (203) 
-7.70578337838716

>  <distance_score>  (203) 
2.2542019965626596

>  <path>  (203) 
/opt/xchem-fragalysis-2/maxwin/BulkDock/SCRATCH/511021/C62035-P93/C62035-P93.minimised.mol

>  <scratch_subdir>  (203) 
/opt/xchem-fragalysis-2/maxwin/BulkDock/SCRATCH/511021/C62035-P93

>  <fragmenstein_runtime>  (203) 
2.0580849647521973

>  <fragmenstein_outcome>  (203) 
too moved

>  <fragmenstein_mode>  (203) 
expansion

>  <fragmenstein_error>  (203) 


$$$$
C62035-P27
     RDKit          3D

 29 29  0  0  0  0  0  0  0  0999 V2000
   16.6797   -6.6995   19.4034 C   0  0  0  0  0  0  0  0  0  0  0  0
   16.3042   -5.5674   19.2899 C   0  0  0  0  0  0  0  0  0  0  0  0
   15.8366   -4.2054   19.2841 C   0  0  0  0  0  0  0  0  0  0  0  0
   15.7914   -3.6626   20.3150 O   0  0  0  0  0  0  0  0  0  0  0  0
   15.4405   -3.7123   17.8743 N   0  0  0  0  0  0  0  0  0  0  0  0
   14.8396   -2.5255   17.4684 C   0  0  0  0  0  0  0  0  0  0  0  0
   14.5679   -1.5838   18.4454 C   0  0  0  0  0  0  0  0  0  0  0  0
   13.9890   -0.3798   18.1119 C   0  0  0  0  0  0  0  0  0  0  0  0
   13.6268   -0.1268   16.8044 C   0  0  0  0  0  0  0  0  0  0  0  0
   13.9566   -1.0088   15.7684 C   0  0  0  0  0  0  0  0  0  0  0  0
   13.6780   -0.5922   14.3270 C   0  0  0  0  0  0  0  0  0  0  0  0
   14.7512   -1.0394   13.3256 C   0  0  0  0  0  0  0  0  0  0  0  0
   13.3814    0.8543   14.1809 N   0  0  0  0  0  0  0  0  0  0  0  0
   14.5138    1.7469   14.4067 C   0  0  0  0  0  0  0  0  0  0  0  0
   14.5338   -2.2434   16.1277 C   0  0  0  0  0  0  0  0  0  0  0  0
   17.0032   -7.7099   19.5056 H   0  0  0  0  0  0  0  0  0  0  0  0
   15.5322   -4.4718   17.2127 H   0  0  0  0  0  0  0  0  0  0  0  0
   14.8073   -1.7455   19.4921 H   0  0  0  0  0  0  0  0  0  0  0  0
   13.8071    0.3640   18.8824 H   0  0  0  0  0  0  0  0  0  0  0  0
   13.1235    0.8164   16.5993 H   0  0  0  0  0  0  0  0  0  0  0  0
   12.7485   -1.1103   14.0540 H   0  0  0  0  0  0  0  0  0  0  0  0
   14.7895   -2.1305   13.2457 H   0  0  0  0  0  0  0  0  0  0  0  0
   15.7499   -0.6942   13.6151 H   0  0  0  0  0  0  0  0  0  0  0  0
   14.5333   -0.6601   12.3205 H   0  0  0  0  0  0  0  0  0  0  0  0
   13.0120    1.0155   13.2452 H   0  0  0  0  0  0  0  0  0  0  0  0
   15.2414    1.6747   13.5920 H   0  0  0  0  0  0  0  0  0  0  0  0
   15.0371    1.5738   15.3500 H   0  0  0  0  0  0  0  0  0  0  0  0
   14.1506    2.7796   14.4242 H   0  0  0  0  0  0  0  0  0  0  0  0
   14.7999   -2.9645   15.3662 H   0  0  0  0  0  0  0  0  0  0  0  0
  1  2  3  0
  2  3  1  0
  3  4  2  0
  3  5  1  0
  5  6  1  0
  6  7  2  0
  7  8  1  0
  8  9  2  0
  9 10  1  0
 10 11  1  0
 11 12  1  0
 11 13  1  0
 13 14  1  0
 10 15  2  0
 15  6  1  0
  1 16  1  0
  5 17  1  0
  7 18  1  0
  8 19  1  0
  9 20  1  0
 11 21  1  0
 12 22  1  0
 12 23  1  0
 12 24  1  0
 13 25  1  0
 14 26  1  0
 14 27  1  0
 14 28  1  0
 15 29  1  0
M  END
>  <Energy>  (204) 
20.624842675011838

>  <compound_id>  (204) 
62035

>  <target_id>  (204) 
1

>  <reference_id>  (204) 
27

>  <inspiration_ids>  (204) 
[93, 27]

>  <energy_score>  (204) 
-1.19913600635239

>  <distance_score>  (204) 
2.4496052956532037

>  <path>  (204) 
/opt/xchem-fragalysis-2/maxwin/BulkDock/SCRATCH/511021/C62035-P27/C62035-P27.minimised.mol

>  <scratch_subdir>  (204) 
/opt/xchem-fragalysis-2/maxwin/BulkDock/SCRATCH/511021/C62035-P27

>  <fragmenstein_runtime>  (204) 
1.3646461963653564

>  <fragmenstein_outcome>  (204) 
too moved

>  <fragmenstein_mode>  (204) 
expansion

>  <fragmenstein_error>  (204) 


$$$$
C62036-P93
     RDKit          3D

 30 30  0  0  0  0  0  0  0  0999 V2000
   16.1840   -1.0223   17.3326 C   0  0  0  0  0  0  0  0  0  0  0  0
   16.8146   -1.1221   18.6504 N   0  0  0  0  0  0  0  0  0  0  0  0
   17.4406   -2.4196   19.0415 C   0  0  0  0  0  0  0  0  0  0  0  0
   18.8680   -2.5246   18.4916 C   0  0  0  0  0  0  0  0  0  0  0  0
   16.5276   -3.6007   18.7114 C   0  0  0  0  0  0  0  0  0  0  0  0
   16.5432   -4.0830   17.4027 C   0  0  0  0  0  0  0  0  0  0  0  0
   15.3201   -4.2258   16.7790 C   0  0  0  0  0  0  0  0  0  0  0  0
   14.1403   -4.0981   17.5124 C   0  0  0  0  0  0  0  0  0  0  0  0
   12.9837   -3.7480   16.8391 N   0  0  0  0  0  0  0  0  0  0  0  0
   12.7866   -2.9504   15.5148 C   0  0  0  0  0  0  0  0  0  0  0  0
   11.3253   -2.9693   15.1763 C   0  0  0  0  0  0  0  0  0  0  0  0
   13.5671   -2.4041   14.8359 O   0  0  0  0  0  0  0  0  0  0  0  0
   14.1671   -4.0755   18.9037 C   0  0  0  0  0  0  0  0  0  0  0  0
   15.3863   -3.7943   19.5156 C   0  0  0  0  0  0  0  0  0  0  0  0
   15.2022   -1.4949   17.3147 H   0  0  0  0  0  0  0  0  0  0  0  0
   16.8240   -1.4022   16.5317 H   0  0  0  0  0  0  0  0  0  0  0  0
   16.0032    0.0371   17.1183 H   0  0  0  0  0  0  0  0  0  0  0  0
   17.5144   -0.3881   18.7398 H   0  0  0  0  0  0  0  0  0  0  0  0
   17.5444   -2.3957   20.1346 H   0  0  0  0  0  0  0  0  0  0  0  0
   18.9071   -2.4311   17.4013 H   0  0  0  0  0  0  0  0  0  0  0  0
   19.3202   -3.4848   18.7635 H   0  0  0  0  0  0  0  0  0  0  0  0
   19.4991   -1.7307   18.9074 H   0  0  0  0  0  0  0  0  0  0  0  0
   17.4251   -4.0126   16.7725 H   0  0  0  0  0  0  0  0  0  0  0  0
   15.2955   -4.3003   15.6955 H   0  0  0  0  0  0  0  0  0  0  0  0
   12.0813   -4.0200   17.2081 H   0  0  0  0  0  0  0  0  0  0  0  0
   10.8681   -3.8992   15.4990 H   0  0  0  0  0  0  0  0  0  0  0  0
   10.8304   -2.1092   15.6306 H   0  0  0  0  0  0  0  0  0  0  0  0
   11.2256   -2.9224   14.0902 H   0  0  0  0  0  0  0  0  0  0  0  0
   13.2535   -4.0115   19.4895 H   0  0  0  0  0  0  0  0  0  0  0  0
   15.3799   -3.4606   20.5522 H   0  0  0  0  0  0  0  0  0  0  0  0
  1  2  1  0
  2  3  1  0
  3  4  1  0
  3  5  1  0
  5  6  2  0
  6  7  1  0
  7  8  2  0
  8  9  1  0
  9 10  1  0
 10 11  1  0
 10 12  2  0
  8 13  1  0
 13 14  2  0
 14  5  1  0
  1 15  1  0
  1 16  1  0
  1 17  1  0
  2 18  1  0
  3 19  1  0
  4 20  1  0
  4 21  1  0
  4 22  1  0
  6 23  1  0
  7 24  1  0
  9 25  1  0
 11 26  1  0
 11 27  1  0
 11 28  1  0
 13 29  1  0
 14 30  1  0
M  END
>  <Energy>  (205) 
52.58017519347338

>  <compound_id>  (205) 
62036

>  <target_id>  (205) 
1

>  <reference_id>  (205) 
93

>  <inspiration_ids>  (205) 
[93, 27]

>  <energy_score>  (205) 
14.079548485807152

>  <distance_score>  (205) 
2.086008038743349

>  <path>  (205) 
/opt/xchem-fragalysis-2/maxwin/BulkDock/SCRATCH/511021/C62036-P93/C62036-P93.minimised.mol

>  <scratch_subdir>  (205) 
/opt/xchem-fragalysis-2/maxwin/BulkDock/SCRATCH/511021/C62036-P93

>  <fragmenstein_runtime>  (205) 
1.1918745040893555

>  <fragmenstein_outcome>  (205) 
too moved

>  <fragmenstein_mode>  (205) 
expansion

>  <fragmenstein_error>  (205) 


$$$$
C62036-P27
     RDKit          3D

 30 30  0  0  0  0  0  0  0  0999 V2000
   15.8947   -0.9237   17.8925 C   0  0  0  0  0  0  0  0  0  0  0  0
   17.2546   -1.3950   18.1797 N   0  0  0  0  0  0  0  0  0  0  0  0
   17.3550   -2.4675   19.2169 C   0  0  0  0  0  0  0  0  0  0  0  0
   18.8168   -2.8900   19.3705 C   0  0  0  0  0  0  0  0  0  0  0  0
   16.4680   -3.6617   18.8659 C   0  0  0  0  0  0  0  0  0  0  0  0
   16.5145   -4.1050   17.5438 C   0  0  0  0  0  0  0  0  0  0  0  0
   15.3024   -4.2483   16.8988 C   0  0  0  0  0  0  0  0  0  0  0  0
   14.1108   -4.1509   17.6180 C   0  0  0  0  0  0  0  0  0  0  0  0
   12.9581   -3.7563   16.9560 N   0  0  0  0  0  0  0  0  0  0  0  0
   12.7754   -2.9071   15.6599 C   0  0  0  0  0  0  0  0  0  0  0  0
   11.3123   -2.8746   15.3258 C   0  0  0  0  0  0  0  0  0  0  0  0
   13.5658   -2.3498   15.0013 O   0  0  0  0  0  0  0  0  0  0  0  0
   14.1215   -4.1797   19.0101 C   0  0  0  0  0  0  0  0  0  0  0  0
   15.3271   -3.9045   19.6506 C   0  0  0  0  0  0  0  0  0  0  0  0
   15.3228   -0.7534   18.8100 H   0  0  0  0  0  0  0  0  0  0  0  0
   15.3465   -1.5864   17.2263 H   0  0  0  0  0  0  0  0  0  0  0  0
   15.9642    0.0364   17.3694 H   0  0  0  0  0  0  0  0  0  0  0  0
   17.8127   -0.6039   18.4960 H   0  0  0  0  0  0  0  0  0  0  0  0
   17.0307   -2.0433   20.1762 H   0  0  0  0  0  0  0  0  0  0  0  0
   19.4363   -2.0426   19.6847 H   0  0  0  0  0  0  0  0  0  0  0  0
   19.2349   -3.2803   18.4357 H   0  0  0  0  0  0  0  0  0  0  0  0
   18.9161   -3.6745   20.1292 H   0  0  0  0  0  0  0  0  0  0  0  0
   17.4049   -3.9601   16.9345 H   0  0  0  0  0  0  0  0  0  0  0  0
   15.3039   -4.2630   15.8142 H   0  0  0  0  0  0  0  0  0  0  0  0
   12.0499   -4.0264   17.3153 H   0  0  0  0  0  0  0  0  0  0  0  0
   10.8292   -2.0679   15.8789 H   0  0  0  0  0  0  0  0  0  0  0  0
   11.2017   -2.6926   14.2541 H   0  0  0  0  0  0  0  0  0  0  0  0
   10.8499   -3.8332   15.5410 H   0  0  0  0  0  0  0  0  0  0  0  0
   13.1993   -4.1475   19.5849 H   0  0  0  0  0  0  0  0  0  0  0  0
   15.3039   -3.6220   20.7013 H   0  0  0  0  0  0  0  0  0  0  0  0
  1  2  1  0
  2  3  1  0
  3  4  1  0
  3  5  1  0
  5  6  2  0
  6  7  1  0
  7  8  2  0
  8  9  1  0
  9 10  1  0
 10 11  1  0
 10 12  2  0
  8 13  1  0
 13 14  2  0
 14  5  1  0
  1 15  1  0
  1 16  1  0
  1 17  1  0
  2 18  1  0
  3 19  1  0
  4 20  1  0
  4 21  1  0
  4 22  1  0
  6 23  1  0
  7 24  1  0
  9 25  1  0
 11 26  1  0
 11 27  1  0
 11 28  1  0
 13 29  1  0
 14 30  1  0
M  END
>  <Energy>  (206) 
51.724819776360292

>  <compound_id>  (206) 
62036

>  <target_id>  (206) 
1

>  <reference_id>  (206) 
27

>  <inspiration_ids>  (206) 
[93, 27]

>  <energy_score>  (206) 
13.224193068694362

>  <distance_score>  (206) 
1.880231369451338

>  <path>  (206) 
/opt/xchem-fragalysis-2/maxwin/BulkDock/SCRATCH/511021/C62036-P27/C62036-P27.minimised.mol

>  <scratch_subdir>  (206) 
/opt/xchem-fragalysis-2/maxwin/BulkDock/SCRATCH/511021/C62036-P27

>  <fragmenstein_runtime>  (206) 
1.1207818984985352

>  <fragmenstein_outcome>  (206) 
too moved

>  <fragmenstein_mode>  (206) 
expansion

>  <fragmenstein_error>  (206) 


$$$$
C62037-P93
     RDKit          3D

 30 30  0  0  0  0  0  0  0  0999 V2000
   13.8051    1.6509   16.2499 C   0  0  0  0  0  0  0  0  0  0  0  0
   13.6371    1.1428   14.8970 N   0  0  0  0  0  0  0  0  0  0  0  0
   14.3976   -0.0918   14.6466 C   0  0  0  0  0  0  0  0  0  0  0  0
   14.4598   -0.3166   13.1271 C   0  0  0  0  0  0  0  0  0  0  0  0
   13.8277   -1.3016   15.3788 C   0  0  0  0  0  0  0  0  0  0  0  0
   12.5907   -1.8236   14.9564 C   0  0  0  0  0  0  0  0  0  0  0  0
   12.0347   -2.9622   15.5363 C   0  0  0  0  0  0  0  0  0  0  0  0
   12.6939   -3.6088   16.5624 C   0  0  0  0  0  0  0  0  0  0  0  0
   13.8995   -3.0948   17.0207 C   0  0  0  0  0  0  0  0  0  0  0  0
   14.4742   -1.9464   16.4540 C   0  0  0  0  0  0  0  0  0  0  0  0
   15.6822   -1.4643   16.9728 N   0  0  0  0  0  0  0  0  0  0  0  0
   16.5353   -1.9609   18.1816 C   0  0  0  0  0  0  0  0  0  0  0  0
   17.6731   -0.9742   18.3198 C   0  0  0  0  0  0  0  0  0  0  0  0
   16.3960   -2.8922   18.8754 O   0  0  0  0  0  0  0  0  0  0  0  0
   13.4081    0.9625   17.0017 H   0  0  0  0  0  0  0  0  0  0  0  0
   14.8581    1.8535   16.4703 H   0  0  0  0  0  0  0  0  0  0  0  0
   13.2633    2.5966   16.3502 H   0  0  0  0  0  0  0  0  0  0  0  0
   12.6499    0.9746   14.7090 H   0  0  0  0  0  0  0  0  0  0  0  0
   15.4385    0.0801   14.9361 H   0  0  0  0  0  0  0  0  0  0  0  0
   14.9942   -1.2441   12.8914 H   0  0  0  0  0  0  0  0  0  0  0  0
   13.4674   -0.3769   12.6689 H   0  0  0  0  0  0  0  0  0  0  0  0
   14.9928    0.5072   12.6381 H   0  0  0  0  0  0  0  0  0  0  0  0
   12.0409   -1.3602   14.1374 H   0  0  0  0  0  0  0  0  0  0  0  0
   11.0957   -3.3564   15.1535 H   0  0  0  0  0  0  0  0  0  0  0  0
   12.2810   -4.5114   17.0023 H   0  0  0  0  0  0  0  0  0  0  0  0
   14.3905   -3.6181   17.8370 H   0  0  0  0  0  0  0  0  0  0  0  0
   16.0396   -0.5767   16.6489 H   0  0  0  0  0  0  0  0  0  0  0  0
   18.3291   -1.2888   19.1367 H   0  0  0  0  0  0  0  0  0  0  0  0
   17.2785    0.0192   18.5501 H   0  0  0  0  0  0  0  0  0  0  0  0
   18.2566   -0.9436   17.3956 H   0  0  0  0  0  0  0  0  0  0  0  0
  1  2  1  0
  2  3  1  0
  3  4  1  0
  3  5  1  0
  5  6  2  0
  6  7  1  0
  7  8  2  0
  8  9  1  0
  9 10  2  0
 10 11  1  0
 11 12  1  0
 12 13  1  0
 12 14  2  0
 10  5  1  0
  1 15  1  0
  1 16  1  0
  1 17  1  0
  2 18  1  0
  3 19  1  0
  4 20  1  0
  4 21  1  0
  4 22  1  0
  6 23  1  0
  7 24  1  0
  8 25  1  0
  9 26  1  0
 11 27  1  0
 13 28  1  0
 13 29  1  0
 13 30  1  0
M  END
>  <Energy>  (207) 
20.301370058556408

>  <compound_id>  (207) 
62037

>  <target_id>  (207) 
1

>  <reference_id>  (207) 
93

>  <inspiration_ids>  (207) 
[93, 27]

>  <energy_score>  (207) 
-23.712641673252087

>  <distance_score>  (207) 
3.0289958873662095

>  <path>  (207) 
/opt/xchem-fragalysis-2/maxwin/BulkDock/SCRATCH/511021/C62037-P93/C62037-P93.minimised.mol

>  <scratch_subdir>  (207) 
/opt/xchem-fragalysis-2/maxwin/BulkDock/SCRATCH/511021/C62037-P93

>  <fragmenstein_runtime>  (207) 
1.988236427307129

>  <fragmenstein_outcome>  (207) 
too moved

>  <fragmenstein_mode>  (207) 
expansion

>  <fragmenstein_error>  (207) 


$$$$
C62037-P27
     RDKit          3D

 30 30  0  0  0  0  0  0  0  0999 V2000
   13.7382    1.7203   16.2115 C   0  0  0  0  0  0  0  0  0  0  0  0
   13.6082    1.1951   14.8599 N   0  0  0  0  0  0  0  0  0  0  0  0
   14.3810   -0.0375   14.6431 C   0  0  0  0  0  0  0  0  0  0  0  0
   14.4604   -0.2940   13.1292 C   0  0  0  0  0  0  0  0  0  0  0  0
   13.8163   -1.2350   15.3980 C   0  0  0  0  0  0  0  0  0  0  0  0
   12.5956   -1.7888   14.9677 C   0  0  0  0  0  0  0  0  0  0  0  0
   12.0367   -2.9069   15.5827 C   0  0  0  0  0  0  0  0  0  0  0  0
   12.6780   -3.4987   16.6520 C   0  0  0  0  0  0  0  0  0  0  0  0
   13.8680   -2.9548   17.1160 C   0  0  0  0  0  0  0  0  0  0  0  0
   14.4464   -1.8284   16.5122 C   0  0  0  0  0  0  0  0  0  0  0  0
   15.6333   -1.3083   17.0414 N   0  0  0  0  0  0  0  0  0  0  0  0
   16.5273   -1.8171   18.2151 C   0  0  0  0  0  0  0  0  0  0  0  0
   17.6237   -0.7881   18.3784 C   0  0  0  0  0  0  0  0  0  0  0  0
   16.4469   -2.7875   18.8632 O   0  0  0  0  0  0  0  0  0  0  0  0
   13.3090    1.0468   16.9595 H   0  0  0  0  0  0  0  0  0  0  0  0
   14.7853    1.9170   16.4632 H   0  0  0  0  0  0  0  0  0  0  0  0
   13.2021    2.6721   16.2808 H   0  0  0  0  0  0  0  0  0  0  0  0
   12.6258    1.0178   14.6541 H   0  0  0  0  0  0  0  0  0  0  0  0
   15.4176    0.1507   14.9375 H   0  0  0  0  0  0  0  0  0  0  0  0
   14.9925    0.5233   12.6284 H   0  0  0  0  0  0  0  0  0  0  0  0
   15.0038   -1.2222   12.9186 H   0  0  0  0  0  0  0  0  0  0  0  0
   13.4734   -0.3708   12.6619 H   0  0  0  0  0  0  0  0  0  0  0  0
   12.0574   -1.3621   14.1216 H   0  0  0  0  0  0  0  0  0  0  0  0
   11.1085   -3.3255   15.1994 H   0  0  0  0  0  0  0  0  0  0  0  0
   12.2589   -4.3786   17.1280 H   0  0  0  0  0  0  0  0  0  0  0  0
   14.3385   -3.4319   17.9720 H   0  0  0  0  0  0  0  0  0  0  0  0
   16.0355   -0.4689   16.6497 H   0  0  0  0  0  0  0  0  0  0  0  0
   18.2450   -1.0533   19.2387 H   0  0  0  0  0  0  0  0  0  0  0  0
   17.1890    0.1995   18.5562 H   0  0  0  0  0  0  0  0  0  0  0  0
   18.2505   -0.7685   17.4829 H   0  0  0  0  0  0  0  0  0  0  0  0
  1  2  1  0
  2  3  1  0
  3  4  1  0
  3  5  1  0
  5  6  2  0
  6  7  1  0
  7  8  2  0
  8  9  1  0
  9 10  2  0
 10 11  1  0
 11 12  1  0
 12 13  1  0
 12 14  2  0
 10  5  1  0
  1 15  1  0
  1 16  1  0
  1 17  1  0
  2 18  1  0
  3 19  1  0
  4 20  1  0
  4 21  1  0
  4 22  1  0
  6 23  1  0
  7 24  1  0
  8 25  1  0
  9 26  1  0
 11 27  1  0
 13 28  1  0
 13 29  1  0
 13 30  1  0
M  END
>  <Energy>  (208) 
20.189196560424559

>  <compound_id>  (208) 
62037

>  <target_id>  (208) 
1

>  <reference_id>  (208) 
27

>  <inspiration_ids>  (208) 
[93, 27]

>  <energy_score>  (208) 
-23.824815171384046

>  <distance_score>  (208) 
3.055131021339117

>  <path>  (208) 
/opt/xchem-fragalysis-2/maxwin/BulkDock/SCRATCH/511021/C62037-P27/C62037-P27.minimised.mol

>  <scratch_subdir>  (208) 
/opt/xchem-fragalysis-2/maxwin/BulkDock/SCRATCH/511021/C62037-P27

>  <fragmenstein_runtime>  (208) 
3.037552833557129

>  <fragmenstein_outcome>  (208) 
too moved

>  <fragmenstein_mode>  (208) 
expansion

>  <fragmenstein_error>  (208) 


$$$$
C62039-P93
     RDKit          3D

 32 32  0  0  0  0  0  0  0  0999 V2000
   16.6348   -5.9295   21.4997 C   0  0  0  0  0  0  0  0  0  0  0  0
   16.3194   -5.2582   20.2549 C   0  0  0  0  0  0  0  0  0  0  0  0
   16.1824   -4.7764   19.1670 C   0  0  0  0  0  0  0  0  0  0  0  0
   16.1953   -4.3221   17.8024 C   0  0  0  0  0  0  0  0  0  0  0  0
   17.0082   -4.7753   17.1022 O   0  0  0  0  0  0  0  0  0  0  0  0
   15.1267   -3.2513   17.5271 N   0  0  0  0  0  0  0  0  0  0  0  0
   14.7830   -2.6039   16.3508 C   0  0  0  0  0  0  0  0  0  0  0  0
   15.4929   -2.9077   15.2021 C   0  0  0  0  0  0  0  0  0  0  0  0
   15.2618   -2.2101   14.0300 C   0  0  0  0  0  0  0  0  0  0  0  0
   14.3015   -1.2140   13.9880 C   0  0  0  0  0  0  0  0  0  0  0  0
   13.5540   -0.8986   15.1222 C   0  0  0  0  0  0  0  0  0  0  0  0
   12.5560    0.2377   15.1173 C   0  0  0  0  0  0  0  0  0  0  0  0
   12.1204    0.7791   13.7486 C   0  0  0  0  0  0  0  0  0  0  0  0
   12.9409    1.3373   16.0165 N   0  0  0  0  0  0  0  0  0  0  0  0
   14.2457    1.9240   15.7423 C   0  0  0  0  0  0  0  0  0  0  0  0
   13.7939   -1.6220   16.3074 C   0  0  0  0  0  0  0  0  0  0  0  0
   16.3190   -5.3303   22.3591 H   0  0  0  0  0  0  0  0  0  0  0  0
   17.7110   -6.1059   21.5903 H   0  0  0  0  0  0  0  0  0  0  0  0
   16.1291   -6.8981   21.5618 H   0  0  0  0  0  0  0  0  0  0  0  0
   14.6367   -3.0345   18.3860 H   0  0  0  0  0  0  0  0  0  0  0  0
   16.2595   -3.6767   15.1799 H   0  0  0  0  0  0  0  0  0  0  0  0
   15.8343   -2.4560   13.1382 H   0  0  0  0  0  0  0  0  0  0  0  0
   14.1624   -0.6856   13.0493 H   0  0  0  0  0  0  0  0  0  0  0  0
   11.6391   -0.1877   15.5505 H   0  0  0  0  0  0  0  0  0  0  0  0
   11.3282    1.5285   13.8601 H   0  0  0  0  0  0  0  0  0  0  0  0
   11.7151   -0.0268   13.1298 H   0  0  0  0  0  0  0  0  0  0  0  0
   12.9426    1.2471   13.1977 H   0  0  0  0  0  0  0  0  0  0  0  0
   12.2400    2.0747   15.9581 H   0  0  0  0  0  0  0  0  0  0  0  0
   14.3130    2.3265   14.7275 H   0  0  0  0  0  0  0  0  0  0  0  0
   15.0617    1.2136   15.9039 H   0  0  0  0  0  0  0  0  0  0  0  0
   14.4129    2.7556   16.4348 H   0  0  0  0  0  0  0  0  0  0  0  0
   13.2481   -1.3577   17.2055 H   0  0  0  0  0  0  0  0  0  0  0  0
  1  2  1  0
  2  3  3  0
  3  4  1  0
  4  5  2  0
  4  6  1  0
  6  7  1  0
  7  8  2  0
  8  9  1  0
  9 10  2  0
 10 11  1  0
 11 12  1  0
 12 13  1  0
 12 14  1  0
 14 15  1  0
 11 16  2  0
 16  7  1  0
  1 17  1  0
  1 18  1  0
  1 19  1  0
  6 20  1  0
  8 21  1  0
  9 22  1  0
 10 23  1  0
 12 24  1  0
 13 25  1  0
 13 26  1  0
 13 27  1  0
 14 28  1  0
 15 29  1  0
 15 30  1  0
 15 31  1  0
 16 32  1  0
M  END
>  <Energy>  (209) 
16.686062501001061

>  <compound_id>  (209) 
62039

>  <target_id>  (209) 
1

>  <reference_id>  (209) 
93

>  <inspiration_ids>  (209) 
[93, 27]

>  <energy_score>  (209) 
-18.129787223584856

>  <distance_score>  (209) 
2.5018886549170563

>  <path>  (209) 
/opt/xchem-fragalysis-2/maxwin/BulkDock/SCRATCH/511021/C62039-P93/C62039-P93.minimised.mol

>  <scratch_subdir>  (209) 
/opt/xchem-fragalysis-2/maxwin/BulkDock/SCRATCH/511021/C62039-P93

>  <fragmenstein_runtime>  (209) 
3.3217556476593018

>  <fragmenstein_outcome>  (209) 
too moved

>  <fragmenstein_mode>  (209) 
expansion

>  <fragmenstein_error>  (209) 


$$$$
C62039-P27
     RDKit          3D

 32 32  0  0  0  0  0  0  0  0999 V2000
   17.1819   -6.2209   20.6381 C   0  0  0  0  0  0  0  0  0  0  0  0
   16.7013   -5.0132   19.9859 C   0  0  0  0  0  0  0  0  0  0  0  0
   16.3500   -4.0532   19.3579 C   0  0  0  0  0  0  0  0  0  0  0  0
   15.9130   -3.0089   18.4600 C   0  0  0  0  0  0  0  0  0  0  0  0
   16.6259   -2.1227   18.2112 O   0  0  0  0  0  0  0  0  0  0  0  0
   14.5249   -3.3577   17.9020 N   0  0  0  0  0  0  0  0  0  0  0  0
   13.7869   -2.7662   16.8894 C   0  0  0  0  0  0  0  0  0  0  0  0
   12.6029   -3.3833   16.5049 C   0  0  0  0  0  0  0  0  0  0  0  0
   11.8660   -2.8468   15.4612 C   0  0  0  0  0  0  0  0  0  0  0  0
   12.3121   -1.7026   14.8009 C   0  0  0  0  0  0  0  0  0  0  0  0
   13.5099   -1.0782   15.1588 C   0  0  0  0  0  0  0  0  0  0  0  0
   13.9739    0.1473   14.3928 C   0  0  0  0  0  0  0  0  0  0  0  0
   15.4953    0.2706   14.2266 C   0  0  0  0  0  0  0  0  0  0  0  0
   13.3457    1.3884   14.8762 N   0  0  0  0  0  0  0  0  0  0  0  0
   13.7329    1.7844   16.2245 C   0  0  0  0  0  0  0  0  0  0  0  0
   14.2294   -1.6206   16.2274 C   0  0  0  0  0  0  0  0  0  0  0  0
   16.6441   -7.1019   20.2741 H   0  0  0  0  0  0  0  0  0  0  0  0
   17.0398   -6.1630   21.7215 H   0  0  0  0  0  0  0  0  0  0  0  0
   18.2482   -6.3729   20.4450 H   0  0  0  0  0  0  0  0  0  0  0  0
   14.2228   -4.2456   18.2799 H   0  0  0  0  0  0  0  0  0  0  0  0
   12.2505   -4.2878   16.9901 H   0  0  0  0  0  0  0  0  0  0  0  0
   10.9496   -3.3314   15.1310 H   0  0  0  0  0  0  0  0  0  0  0  0
   11.7126   -1.3047   13.9824 H   0  0  0  0  0  0  0  0  0  0  0  0
   13.5987    0.0150   13.3676 H   0  0  0  0  0  0  0  0  0  0  0  0
   15.7445    1.1116   13.5695 H   0  0  0  0  0  0  0  0  0  0  0  0
   15.9066   -0.6372   13.7700 H   0  0  0  0  0  0  0  0  0  0  0  0
   16.0187    0.4263   15.1748 H   0  0  0  0  0  0  0  0  0  0  0  0
   13.5922    2.1429   14.2375 H   0  0  0  0  0  0  0  0  0  0  0  0
   14.8065    1.9731   16.3119 H   0  0  0  0  0  0  0  0  0  0  0  0
   13.4300    1.0476   16.9737 H   0  0  0  0  0  0  0  0  0  0  0  0
   13.2190    2.7175   16.4789 H   0  0  0  0  0  0  0  0  0  0  0  0
   15.1549   -1.1467   16.5401 H   0  0  0  0  0  0  0  0  0  0  0  0
  1  2  1  0
  2  3  3  0
  3  4  1  0
  4  5  2  0
  4  6  1  0
  6  7  1  0
  7  8  2  0
  8  9  1  0
  9 10  2  0
 10 11  1  0
 11 12  1  0
 12 13  1  0
 12 14  1  0
 14 15  1  0
 11 16  2  0
 16  7  1  0
  1 17  1  0
  1 18  1  0
  1 19  1  0
  6 20  1  0
  8 21  1  0
  9 22  1  0
 10 23  1  0
 12 24  1  0
 13 25  1  0
 13 26  1  0
 13 27  1  0
 14 28  1  0
 15 29  1  0
 15 30  1  0
 15 31  1  0
 16 32  1  0
M  END
>  <Energy>  (210) 
15.08203108431271

>  <compound_id>  (210) 
62039

>  <target_id>  (210) 
1

>  <reference_id>  (210) 
27

>  <inspiration_ids>  (210) 
[93, 27]

>  <energy_score>  (210) 
-19.733818640273178

>  <distance_score>  (210) 
2.3074699846796607

>  <path>  (210) 
/opt/xchem-fragalysis-2/maxwin/BulkDock/SCRATCH/511021/C62039-P27/C62039-P27.minimised.mol

>  <scratch_subdir>  (210) 
/opt/xchem-fragalysis-2/maxwin/BulkDock/SCRATCH/511021/C62039-P27

>  <fragmenstein_runtime>  (210) 
2.004246234893799

>  <fragmenstein_outcome>  (210) 
too moved

>  <fragmenstein_mode>  (210) 
expansion

>  <fragmenstein_error>  (210) 


$$$$
C62040-P93
     RDKit          3D

 30 30  0  0  0  0  0  0  0  0999 V2000
   13.7670    1.7656   16.1230 C   0  0  0  0  0  0  0  0  0  0  0  0
   13.2694    1.1622   14.8973 N   0  0  0  0  0  0  0  0  0  0  0  0
   13.9664   -0.0559   14.4566 C   0  0  0  0  0  0  0  0  0  0  0  0
   15.4580    0.1710   14.1770 C   0  0  0  0  0  0  0  0  0  0  0  0
   13.6689   -1.2537   15.3452 C   0  0  0  0  0  0  0  0  0  0  0  0
   12.5598   -2.0590   15.0697 C   0  0  0  0  0  0  0  0  0  0  0  0
   12.2712   -3.1786   15.8511 C   0  0  0  0  0  0  0  0  0  0  0  0
   13.0809   -3.5176   16.9270 C   0  0  0  0  0  0  0  0  0  0  0  0
   14.1723   -2.7180   17.2380 C   0  0  0  0  0  0  0  0  0  0  0  0
   14.9848   -2.9994   18.3330 N   0  0  0  0  0  0  0  0  0  0  0  0
   15.0258   -4.2462   19.2693 C   0  0  0  0  0  0  0  0  0  0  0  0
   16.1870   -4.0220   20.2118 C   0  0  0  0  0  0  0  0  0  0  0  0
   14.3326   -5.1881   19.3082 O   0  0  0  0  0  0  0  0  0  0  0  0
   14.4557   -1.5926   16.4534 C   0  0  0  0  0  0  0  0  0  0  0  0
   13.6637    1.1023   16.9862 H   0  0  0  0  0  0  0  0  0  0  0  0
   13.1805    2.6652   16.3375 H   0  0  0  0  0  0  0  0  0  0  0  0
   14.8087    2.0853   16.0318 H   0  0  0  0  0  0  0  0  0  0  0  0
   12.2792    0.9459   15.0007 H   0  0  0  0  0  0  0  0  0  0  0  0
   13.5392   -0.2916   13.4714 H   0  0  0  0  0  0  0  0  0  0  0  0
   15.9075   -0.7295   13.7425 H   0  0  0  0  0  0  0  0  0  0  0  0
   16.0310    0.4196   15.0755 H   0  0  0  0  0  0  0  0  0  0  0  0
   15.5953    0.9874   13.4589 H   0  0  0  0  0  0  0  0  0  0  0  0
   11.9119   -1.8342   14.2218 H   0  0  0  0  0  0  0  0  0  0  0  0
   11.4146   -3.8015   15.6043 H   0  0  0  0  0  0  0  0  0  0  0  0
   12.8342   -4.3961   17.5154 H   0  0  0  0  0  0  0  0  0  0  0  0
   15.7866   -2.4093   18.5193 H   0  0  0  0  0  0  0  0  0  0  0  0
   16.0372   -3.0981   20.7770 H   0  0  0  0  0  0  0  0  0  0  0  0
   16.2485   -4.8566   20.9163 H   0  0  0  0  0  0  0  0  0  0  0  0
   17.1214   -3.9718   19.6464 H   0  0  0  0  0  0  0  0  0  0  0  0
   15.3107   -0.9732   16.7105 H   0  0  0  0  0  0  0  0  0  0  0  0
  1  2  1  0
  2  3  1  0
  3  4  1  0
  3  5  1  0
  5  6  2  0
  6  7  1  0
  7  8  2  0
  8  9  1  0
  9 10  1  0
 10 11  1  0
 11 12  1  0
 11 13  2  0
  9 14  2  0
 14  5  1  0
  1 15  1  0
  1 16  1  0
  1 17  1  0
  2 18  1  0
  3 19  1  0
  4 20  1  0
  4 21  1  0
  4 22  1  0
  6 23  1  0
  7 24  1  0
  8 25  1  0
 10 26  1  0
 12 27  1  0
 12 28  1  0
 12 29  1  0
 14 30  1  0
M  END
>  <Energy>  (211) 
15.114943530742043

>  <compound_id>  (211) 
62040

>  <target_id>  (211) 
1

>  <reference_id>  (211) 
93

>  <inspiration_ids>  (211) 
[93, 27]

>  <energy_score>  (211) 
-5.401181099569989

>  <distance_score>  (211) 
2.3162358489744994

>  <path>  (211) 
/opt/xchem-fragalysis-2/maxwin/BulkDock/SCRATCH/511021/C62040-P93/C62040-P93.minimised.mol

>  <scratch_subdir>  (211) 
/opt/xchem-fragalysis-2/maxwin/BulkDock/SCRATCH/511021/C62040-P93

>  <fragmenstein_runtime>  (211) 
1.7711517810821533

>  <fragmenstein_outcome>  (211) 
too moved

>  <fragmenstein_mode>  (211) 
expansion

>  <fragmenstein_error>  (211) 


$$$$
C62040-P27
     RDKit          3D

 30 30  0  0  0  0  0  0  0  0999 V2000
   13.8208    1.7478   16.1131 C   0  0  0  0  0  0  0  0  0  0  0  0
   13.2133    1.2049   14.9070 N   0  0  0  0  0  0  0  0  0  0  0  0
   13.8482   -0.0092   14.3700 C   0  0  0  0  0  0  0  0  0  0  0  0
   15.2999    0.2246   13.9312 C   0  0  0  0  0  0  0  0  0  0  0  0
   13.6359   -1.2218   15.2618 C   0  0  0  0  0  0  0  0  0  0  0  0
   12.4556   -1.9640   15.1480 C   0  0  0  0  0  0  0  0  0  0  0  0
   12.2362   -3.0935   15.9372 C   0  0  0  0  0  0  0  0  0  0  0  0
   13.1896   -3.5064   16.8586 C   0  0  0  0  0  0  0  0  0  0  0  0
   14.3655   -2.7810   16.9957 C   0  0  0  0  0  0  0  0  0  0  0  0
   15.3568   -3.1715   17.8898 N   0  0  0  0  0  0  0  0  0  0  0  0
   15.4624   -4.4363   18.7935 C   0  0  0  0  0  0  0  0  0  0  0  0
   16.8099   -4.3522   19.4748 C   0  0  0  0  0  0  0  0  0  0  0  0
   14.6970   -5.3006   18.9793 O   0  0  0  0  0  0  0  0  0  0  0  0
   14.5753   -1.6401   16.2116 C   0  0  0  0  0  0  0  0  0  0  0  0
   13.7724    1.0501   16.9539 H   0  0  0  0  0  0  0  0  0  0  0  0
   13.2730    2.6482   16.4102 H   0  0  0  0  0  0  0  0  0  0  0  0
   14.8589    2.0507   15.9507 H   0  0  0  0  0  0  0  0  0  0  0  0
   12.2338    0.9968   15.0943 H   0  0  0  0  0  0  0  0  0  0  0  0
   13.3151   -0.2250   13.4329 H   0  0  0  0  0  0  0  0  0  0  0  0
   15.7003   -0.6689   13.4382 H   0  0  0  0  0  0  0  0  0  0  0  0
   15.9675    0.4648   14.7643 H   0  0  0  0  0  0  0  0  0  0  0  0
   15.3565    1.0504   13.2129 H   0  0  0  0  0  0  0  0  0  0  0  0
   11.6979   -1.6837   14.4158 H   0  0  0  0  0  0  0  0  0  0  0  0
   11.3275   -3.6755   15.8064 H   0  0  0  0  0  0  0  0  0  0  0  0
   12.9949   -4.3925   17.4545 H   0  0  0  0  0  0  0  0  0  0  0  0
   16.1726   -2.5878   18.0276 H   0  0  0  0  0  0  0  0  0  0  0  0
   16.8380   -3.4820   20.1360 H   0  0  0  0  0  0  0  0  0  0  0  0
   16.9712   -5.2546   20.0718 H   0  0  0  0  0  0  0  0  0  0  0  0
   17.6055   -4.2846   18.7277 H   0  0  0  0  0  0  0  0  0  0  0  0
   15.4977   -1.0796   16.3357 H   0  0  0  0  0  0  0  0  0  0  0  0
  1  2  1  0
  2  3  1  0
  3  4  1  0
  3  5  1  0
  5  6  2  0
  6  7  1  0
  7  8  2  0
  8  9  1  0
  9 10  1  0
 10 11  1  0
 11 12  1  0
 11 13  2  0
  9 14  2  0
 14  5  1  0
  1 15  1  0
  1 16  1  0
  1 17  1  0
  2 18  1  0
  3 19  1  0
  4 20  1  0
  4 21  1  0
  4 22  1  0
  6 23  1  0
  7 24  1  0
  8 25  1  0
 10 26  1  0
 12 27  1  0
 12 28  1  0
 12 29  1  0
 14 30  1  0
M  END
>  <Energy>  (212) 
15.024912648011073

>  <compound_id>  (212) 
62040

>  <target_id>  (212) 
1

>  <reference_id>  (212) 
27

>  <inspiration_ids>  (212) 
[93, 27]

>  <energy_score>  (212) 
-5.491211982300875

>  <distance_score>  (212) 
2.228038162376379

>  <path>  (212) 
/opt/xchem-fragalysis-2/maxwin/BulkDock/SCRATCH/511021/C62040-P27/C62040-P27.minimised.mol

>  <scratch_subdir>  (212) 
/opt/xchem-fragalysis-2/maxwin/BulkDock/SCRATCH/511021/C62040-P27

>  <fragmenstein_runtime>  (212) 
1.7072358131408691

>  <fragmenstein_outcome>  (212) 
too moved

>  <fragmenstein_mode>  (212) 
expansion

>  <fragmenstein_error>  (212) 


$$$$
C62044-P93
     RDKit          3D

 43 45  0  0  0  0  0  0  0  0999 V2000
   12.0980   -0.9307   14.4066 C   0  0  0  0  0  0  0  0  0  0  0  0
   11.4687   -1.5070   15.6573 C   0  0  0  0  0  0  0  0  0  0  0  0
   12.1418   -2.8360   15.9533 C   0  0  0  0  0  0  0  0  0  0  0  0
   12.0353   -3.7402   15.2278 O   0  0  0  0  0  0  0  0  0  0  0  0
   12.9908   -2.6753   17.2375 N   0  0  0  0  0  0  0  0  0  0  0  0
   13.9260   -3.5342   17.8201 C   0  0  0  0  0  0  0  0  0  0  0  0
   14.6115   -4.3831   16.9685 C   0  0  0  0  0  0  0  0  0  0  0  0
   15.9872   -4.5043   17.1117 C   0  0  0  0  0  0  0  0  0  0  0  0
   16.6136   -3.7182   18.0798 C   0  0  0  0  0  0  0  0  0  0  0  0
   17.7883   -2.8873   17.5720 C   0  0  0  0  0  0  0  0  0  0  0  0
   18.8420   -2.6229   18.6509 C   0  0  0  0  0  0  0  0  0  0  0  0
   17.3249   -1.5778   17.0148 N   0  0  0  0  0  0  0  0  0  0  0  0
   16.3282   -1.6923   15.9328 C   0  0  0  0  0  0  0  0  0  0  0  0
   16.3759   -0.4520   15.0967 C   0  0  0  0  0  0  0  0  0  0  0  0
   15.4758    0.6071   15.0432 C   0  0  0  0  0  0  0  0  0  0  0  0
   16.0182    1.4713   14.1432 N   0  0  0  0  0  0  0  0  0  0  0  0
   15.6954    2.6956   13.6057 C   0  0  0  0  0  0  0  0  0  0  0  0
   16.6279    3.1089   12.7294 C   0  0  0  0  0  0  0  0  0  0  0  0
   17.9637    1.9554   12.5465 S   0  0  0  0  0  0  0  0  0  0  0  0
   17.1845    0.9237   13.7052 C   0  0  0  0  0  0  0  0  0  0  0  0
   17.4597   -0.2281   14.2486 N   0  0  0  0  0  0  0  0  0  0  0  0
   15.8814   -3.2789   19.1847 C   0  0  0  0  0  0  0  0  0  0  0  0
   14.5056   -3.1661   19.0359 C   0  0  0  0  0  0  0  0  0  0  0  0
   13.1742   -0.8048   14.5330 H   0  0  0  0  0  0  0  0  0  0  0  0
   11.6572    0.0404   14.1631 H   0  0  0  0  0  0  0  0  0  0  0  0
   11.9587   -1.5963   13.5495 H   0  0  0  0  0  0  0  0  0  0  0  0
   10.3988   -1.6815   15.5084 H   0  0  0  0  0  0  0  0  0  0  0  0
   11.5817   -0.7874   16.4685 H   0  0  0  0  0  0  0  0  0  0  0  0
   12.9114   -1.7329   17.5769 H   0  0  0  0  0  0  0  0  0  0  0  0
   14.1497   -4.7489   16.0583 H   0  0  0  0  0  0  0  0  0  0  0  0
   16.5520   -4.9203   16.2778 H   0  0  0  0  0  0  0  0  0  0  0  0
   18.2970   -3.4425   16.7717 H   0  0  0  0  0  0  0  0  0  0  0  0
   18.4660   -1.9767   19.4516 H   0  0  0  0  0  0  0  0  0  0  0  0
   19.7214   -2.1310   18.2197 H   0  0  0  0  0  0  0  0  0  0  0  0
   19.1755   -3.5614   19.1077 H   0  0  0  0  0  0  0  0  0  0  0  0
   18.1445   -1.1237   16.6034 H   0  0  0  0  0  0  0  0  0  0  0  0
   15.3248   -1.7730   16.3429 H   0  0  0  0  0  0  0  0  0  0  0  0
   16.5399   -2.5385   15.2703 H   0  0  0  0  0  0  0  0  0  0  0  0
   14.5560    0.8081   15.5698 H   0  0  0  0  0  0  0  0  0  0  0  0
   14.7934    3.2096   13.8966 H   0  0  0  0  0  0  0  0  0  0  0  0
   16.6074    4.0385   12.1763 H   0  0  0  0  0  0  0  0  0  0  0  0
   16.3543   -2.7350   19.9985 H   0  0  0  0  0  0  0  0  0  0  0  0
   13.9628   -2.5922   19.7790 H   0  0  0  0  0  0  0  0  0  0  0  0
  1  2  1  0
  2  3  1  0
  3  4  2  0
  3  5  1  0
  5  6  1  0
  6  7  2  0
  7  8  1  0
  8  9  2  0
  9 10  1  0
 10 11  1  0
 10 12  1  0
 12 13  1  0
 13 14  1  0
 14 15  2  0
 15 16  1  0
 16 17  1  0
 17 18  2  0
 18 19  1  0
 19 20  1  0
 20 21  2  0
  9 22  1  0
 22 23  2  0
 23  6  1  0
 21 14  1  0
 20 16  1  0
  1 24  1  0
  1 25  1  0
  1 26  1  0
  2 27  1  0
  2 28  1  0
  5 29  1  0
  7 30  1  0
  8 31  1  0
 10 32  1  0
 11 33  1  0
 11 34  1  0
 11 35  1  0
 12 36  1  0
 13 37  1  0
 13 38  1  0
 15 39  1  0
 17 40  1  0
 18 41  1  0
 22 42  1  0
 23 43  1  0
M  END
>  <Energy>  (213) 
89.338624627663151

>  <compound_id>  (213) 
62044

>  <target_id>  (213) 
1

>  <reference_id>  (213) 
93

>  <inspiration_ids>  (213) 
[93, 27]

>  <energy_score>  (213) 
-3.7898675636381824

>  <distance_score>  (213) 
1.8792451898079656

>  <path>  (213) 
/opt/xchem-fragalysis-2/maxwin/BulkDock/SCRATCH/511021/C62044-P93/C62044-P93.minimised.mol

>  <scratch_subdir>  (213) 
/opt/xchem-fragalysis-2/maxwin/BulkDock/SCRATCH/511021/C62044-P93

>  <fragmenstein_runtime>  (213) 
12.392893075942993

>  <fragmenstein_outcome>  (213) 
too moved

>  <fragmenstein_mode>  (213) 
expansion

>  <fragmenstein_error>  (213) 


$$$$
C62044-P27
     RDKit          3D

 43 45  0  0  0  0  0  0  0  0999 V2000
   11.3053   -0.9228   14.8445 C   0  0  0  0  0  0  0  0  0  0  0  0
   11.3159   -2.3259   15.4262 C   0  0  0  0  0  0  0  0  0  0  0  0
   12.7383   -2.8057   15.5484 C   0  0  0  0  0  0  0  0  0  0  0  0
   13.5347   -2.5101   14.7452 O   0  0  0  0  0  0  0  0  0  0  0  0
   12.8923   -3.6113   16.8748 N   0  0  0  0  0  0  0  0  0  0  0  0
   14.0279   -4.1111   17.4990 C   0  0  0  0  0  0  0  0  0  0  0  0
   15.1944   -4.3019   16.7638 C   0  0  0  0  0  0  0  0  0  0  0  0
   16.4268   -4.2378   17.3776 C   0  0  0  0  0  0  0  0  0  0  0  0
   16.4338   -3.6833   18.6532 C   0  0  0  0  0  0  0  0  0  0  0  0
   17.3861   -2.4980   18.8270 C   0  0  0  0  0  0  0  0  0  0  0  0
   17.2481   -1.7211   20.1404 C   0  0  0  0  0  0  0  0  0  0  0  0
   17.3151   -1.5338   17.6926 N   0  0  0  0  0  0  0  0  0  0  0  0
   16.0002   -0.9742   17.3363 C   0  0  0  0  0  0  0  0  0  0  0  0
   15.9482   -0.8030   15.8379 C   0  0  0  0  0  0  0  0  0  0  0  0
   15.1092    0.0123   15.0839 C   0  0  0  0  0  0  0  0  0  0  0  0
   15.4119   -0.2939   13.7923 N   0  0  0  0  0  0  0  0  0  0  0  0
   14.9563    0.0647   12.5444 C   0  0  0  0  0  0  0  0  0  0  0  0
   15.6397   -0.5640   11.5723 C   0  0  0  0  0  0  0  0  0  0  0  0
   16.9100   -1.6316   12.1993 S   0  0  0  0  0  0  0  0  0  0  0  0
   16.4331   -1.1937   13.8113 C   0  0  0  0  0  0  0  0  0  0  0  0
   16.8166   -1.5284   15.0112 N   0  0  0  0  0  0  0  0  0  0  0  0
   15.3169   -3.8626   19.4850 C   0  0  0  0  0  0  0  0  0  0  0  0
   14.0812   -4.1117   18.8909 C   0  0  0  0  0  0  0  0  0  0  0  0
   11.8931   -0.2369   15.4638 H   0  0  0  0  0  0  0  0  0  0  0  0
   10.2815   -0.5385   14.8003 H   0  0  0  0  0  0  0  0  0  0  0  0
   11.7224   -0.9012   13.8323 H   0  0  0  0  0  0  0  0  0  0  0  0
   10.7600   -3.0242   14.7956 H   0  0  0  0  0  0  0  0  0  0  0  0
   10.8528   -2.2748   16.3992 H   0  0  0  0  0  0  0  0  0  0  0  0
   11.9825   -3.7548   17.2910 H   0  0  0  0  0  0  0  0  0  0  0  0
   15.1890   -4.3334   15.6829 H   0  0  0  0  0  0  0  0  0  0  0  0
   17.3090   -4.2079   16.7394 H   0  0  0  0  0  0  0  0  0  0  0  0
   18.4020   -2.9155   18.8194 H   0  0  0  0  0  0  0  0  0  0  0  0
   16.2623   -1.2534   20.2434 H   0  0  0  0  0  0  0  0  0  0  0  0
   18.0010   -0.9268   20.2027 H   0  0  0  0  0  0  0  0  0  0  0  0
   17.4007   -2.3807   21.0020 H   0  0  0  0  0  0  0  0  0  0  0  0
   17.6587   -1.9966   16.8439 H   0  0  0  0  0  0  0  0  0  0  0  0
   15.9013    0.0066   17.8145 H   0  0  0  0  0  0  0  0  0  0  0  0
   15.1480   -1.5731   17.6535 H   0  0  0  0  0  0  0  0  0  0  0  0
   14.3272    0.7032   15.3564 H   0  0  0  0  0  0  0  0  0  0  0  0
   14.1380    0.7569   12.4335 H   0  0  0  0  0  0  0  0  0  0  0  0
   15.4632   -0.4631   10.5106 H   0  0  0  0  0  0  0  0  0  0  0  0
   15.3278   -3.5516   20.5269 H   0  0  0  0  0  0  0  0  0  0  0  0
   13.1820   -4.0222   19.4950 H   0  0  0  0  0  0  0  0  0  0  0  0
  1  2  1  0
  2  3  1  0
  3  4  2  0
  3  5  1  0
  5  6  1  0
  6  7  2  0
  7  8  1  0
  8  9  2  0
  9 10  1  0
 10 11  1  0
 10 12  1  0
 12 13  1  0
 13 14  1  0
 14 15  2  0
 15 16  1  0
 16 17  1  0
 17 18  2  0
 18 19  1  0
 19 20  1  0
 20 21  2  0
  9 22  1  0
 22 23  2  0
 23  6  1  0
 21 14  1  0
 20 16  1  0
  1 24  1  0
  1 25  1  0
  1 26  1  0
  2 27  1  0
  2 28  1  0
  5 29  1  0
  7 30  1  0
  8 31  1  0
 10 32  1  0
 11 33  1  0
 11 34  1  0
 11 35  1  0
 12 36  1  0
 13 37  1  0
 13 38  1  0
 15 39  1  0
 17 40  1  0
 18 41  1  0
 22 42  1  0
 23 43  1  0
M  END
>  <Energy>  (214) 
88.010123476377117

>  <compound_id>  (214) 
62044

>  <target_id>  (214) 
1

>  <reference_id>  (214) 
27

>  <inspiration_ids>  (214) 
[93, 27]

>  <energy_score>  (214) 
-5.118368714923946

>  <distance_score>  (214) 
1.9147592539101512

>  <path>  (214) 
/opt/xchem-fragalysis-2/maxwin/BulkDock/SCRATCH/511021/C62044-P27/C62044-P27.minimised.mol

>  <scratch_subdir>  (214) 
/opt/xchem-fragalysis-2/maxwin/BulkDock/SCRATCH/511021/C62044-P27

>  <fragmenstein_runtime>  (214) 
17.824466943740845

>  <fragmenstein_outcome>  (214) 
too moved

>  <fragmenstein_mode>  (214) 
expansion

>  <fragmenstein_error>  (214) 


$$$$
C62045-P93
     RDKit          3D

 46 47  0  0  0  0  0  0  0  0999 V2000
   11.8995   -1.0025   14.5136 C   0  0  0  0  0  0  0  0  0  0  0  0
   11.9329   -2.0359   15.6197 C   0  0  0  0  0  0  0  0  0  0  0  0
   13.3129   -2.6474   15.7454 C   0  0  0  0  0  0  0  0  0  0  0  0
   14.1617   -2.4698   14.9615 O   0  0  0  0  0  0  0  0  0  0  0  0
   13.3336   -3.4219   17.0977 N   0  0  0  0  0  0  0  0  0  0  0  0
   14.3824   -4.0253   17.7718 C   0  0  0  0  0  0  0  0  0  0  0  0
   15.5581   -4.3218   17.0859 C   0  0  0  0  0  0  0  0  0  0  0  0
   16.7051   -4.6649   17.7877 C   0  0  0  0  0  0  0  0  0  0  0  0
   16.7054   -4.5861   19.1861 C   0  0  0  0  0  0  0  0  0  0  0  0
   18.0261   -4.2638   19.8699 C   0  0  0  0  0  0  0  0  0  0  0  0
   18.1796   -4.9439   21.2334 C   0  0  0  0  0  0  0  0  0  0  0  0
   18.1036   -2.7930   20.0286 N   0  0  0  0  0  0  0  0  0  0  0  0
   18.3927   -2.0774   18.7673 C   0  0  0  0  0  0  0  0  0  0  0  0
   17.7263   -0.6996   18.7145 C   0  0  0  0  0  0  0  0  0  0  0  0
   16.2017   -0.7311   18.4936 C   0  0  0  0  0  0  0  0  0  0  0  0
   15.9392   -0.7122   16.9897 C   0  0  0  0  0  0  0  0  0  0  0  0
   16.8184    0.3945   16.4287 C   0  0  0  0  0  0  0  0  0  0  0  0
   18.3565    0.2645   17.3234 S   0  0  0  0  0  0  0  0  0  0  0  0
   19.2734   -0.5371   16.5376 O   0  0  0  0  0  0  0  0  0  0  0  0
   18.7244    1.5836   17.7984 O   0  0  0  0  0  0  0  0  0  0  0  0
   15.4806   -4.4589   19.8650 C   0  0  0  0  0  0  0  0  0  0  0  0
   14.3079   -4.2015   19.1527 C   0  0  0  0  0  0  0  0  0  0  0  0
   10.9182   -0.5210   14.4714 H   0  0  0  0  0  0  0  0  0  0  0  0
   12.6490   -0.2208   14.6795 H   0  0  0  0  0  0  0  0  0  0  0  0
   12.1068   -1.4599   13.5413 H   0  0  0  0  0  0  0  0  0  0  0  0
   11.2038   -2.8293   15.4315 H   0  0  0  0  0  0  0  0  0  0  0  0
   11.6950   -1.5244   16.5516 H   0  0  0  0  0  0  0  0  0  0  0  0
   12.4443   -3.3082   17.5666 H   0  0  0  0  0  0  0  0  0  0  0  0
   15.6123   -4.2328   16.0029 H   0  0  0  0  0  0  0  0  0  0  0  0
   17.6330   -4.8001   17.2355 H   0  0  0  0  0  0  0  0  0  0  0  0
   18.8633   -4.6149   19.2518 H   0  0  0  0  0  0  0  0  0  0  0  0
   19.1832   -4.7704   21.6382 H   0  0  0  0  0  0  0  0  0  0  0  0
   18.0371   -6.0269   21.1463 H   0  0  0  0  0  0  0  0  0  0  0  0
   17.4625   -4.5709   21.9728 H   0  0  0  0  0  0  0  0  0  0  0  0
   18.8270   -2.5653   20.7103 H   0  0  0  0  0  0  0  0  0  0  0  0
   19.4830   -1.9610   18.7165 H   0  0  0  0  0  0  0  0  0  0  0  0
   18.1253   -2.6342   17.8693 H   0  0  0  0  0  0  0  0  0  0  0  0
   17.9586   -0.1359   19.6255 H   0  0  0  0  0  0  0  0  0  0  0  0
   15.7645    0.1750   18.9337 H   0  0  0  0  0  0  0  0  0  0  0  0
   15.7235   -1.5781   18.9869 H   0  0  0  0  0  0  0  0  0  0  0  0
   16.2317   -1.6656   16.5429 H   0  0  0  0  0  0  0  0  0  0  0  0
   14.8855   -0.5252   16.7693 H   0  0  0  0  0  0  0  0  0  0  0  0
   17.0013    0.2855   15.3579 H   0  0  0  0  0  0  0  0  0  0  0  0
   16.3912    1.3798   16.6372 H   0  0  0  0  0  0  0  0  0  0  0  0
   15.4476   -4.3933   20.9499 H   0  0  0  0  0  0  0  0  0  0  0  0
   13.3917   -3.9929   19.7010 H   0  0  0  0  0  0  0  0  0  0  0  0
  1  2  1  0
  2  3  1  0
  3  4  2  0
  3  5  1  0
  5  6  1  0
  6  7  2  0
  7  8  1  0
  8  9  2  0
  9 10  1  0
 10 11  1  0
 10 12  1  0
 12 13  1  0
 13 14  1  0
 14 15  1  0
 15 16  1  0
 16 17  1  0
 17 18  1  0
 18 19  2  0
 18 20  2  0
  9 21  1  0
 21 22  2  0
 22  6  1  0
 18 14  1  0
  1 23  1  0
  1 24  1  0
  1 25  1  0
  2 26  1  0
  2 27  1  0
  5 28  1  0
  7 29  1  0
  8 30  1  0
 10 31  1  0
 11 32  1  0
 11 33  1  0
 11 34  1  0
 12 35  1  0
 13 36  1  0
 13 37  1  0
 14 38  1  0
 15 39  1  0
 15 40  1  0
 16 41  1  0
 16 42  1  0
 17 43  1  0
 17 44  1  0
 21 45  1  0
 22 46  1  0
M  END
>  <Energy>  (215) 
33.496710421077388

>  <compound_id>  (215) 
62045

>  <target_id>  (215) 
1

>  <reference_id>  (215) 
93

>  <inspiration_ids>  (215) 
[93, 27]

>  <energy_score>  (215) 
-63.33811897768776

>  <distance_score>  (215) 
1.9151030896145378

>  <path>  (215) 
/opt/xchem-fragalysis-2/maxwin/BulkDock/SCRATCH/511021/C62045-P93/C62045-P93.minimised.mol

>  <scratch_subdir>  (215) 
/opt/xchem-fragalysis-2/maxwin/BulkDock/SCRATCH/511021/C62045-P93

>  <fragmenstein_runtime>  (215) 
6.787362098693848

>  <fragmenstein_outcome>  (215) 
too moved

>  <fragmenstein_mode>  (215) 
expansion

>  <fragmenstein_error>  (215) 


$$$$
C62045-P27
     RDKit          3D

 46 47  0  0  0  0  0  0  0  0999 V2000
   12.2682   -0.9047   14.7017 C   0  0  0  0  0  0  0  0  0  0  0  0
   12.2505   -1.2507   16.1798 C   0  0  0  0  0  0  0  0  0  0  0  0
   12.7810   -2.6624   16.4025 C   0  0  0  0  0  0  0  0  0  0  0  0
   12.6413   -3.5089   15.6135 O   0  0  0  0  0  0  0  0  0  0  0  0
   13.5627   -2.6564   17.7412 N   0  0  0  0  0  0  0  0  0  0  0  0
   14.3784   -3.6231   18.3128 C   0  0  0  0  0  0  0  0  0  0  0  0
   15.0892   -4.4695   17.4704 C   0  0  0  0  0  0  0  0  0  0  0  0
   16.3262   -4.9612   17.8833 C   0  0  0  0  0  0  0  0  0  0  0  0
   16.8489   -4.5810   19.1295 C   0  0  0  0  0  0  0  0  0  0  0  0
   18.3620   -4.5362   19.2647 C   0  0  0  0  0  0  0  0  0  0  0  0
   18.9124   -4.3620   20.6835 C   0  0  0  0  0  0  0  0  0  0  0  0
   18.9426   -3.5224   18.3435 N   0  0  0  0  0  0  0  0  0  0  0  0
   18.4528   -2.1298   18.4701 C   0  0  0  0  0  0  0  0  0  0  0  0
   17.2762   -1.7029   17.5984 C   0  0  0  0  0  0  0  0  0  0  0  0
   17.4265   -1.8770   16.0888 C   0  0  0  0  0  0  0  0  0  0  0  0
   16.2821   -1.0754   15.4680 C   0  0  0  0  0  0  0  0  0  0  0  0
   16.3535    0.3038   16.1130 C   0  0  0  0  0  0  0  0  0  0  0  0
   16.7875    0.0038   17.8207 S   0  0  0  0  0  0  0  0  0  0  0  0
   17.9402    0.8149   18.1496 O   0  0  0  0  0  0  0  0  0  0  0  0
   15.5634    0.0417   18.5999 O   0  0  0  0  0  0  0  0  0  0  0  0
   15.9996   -3.9693   20.0622 C   0  0  0  0  0  0  0  0  0  0  0  0
   14.7645   -3.4720   19.6444 C   0  0  0  0  0  0  0  0  0  0  0  0
   11.6470   -1.5960   14.1238 H   0  0  0  0  0  0  0  0  0  0  0  0
   11.8856    0.1083   14.5428 H   0  0  0  0  0  0  0  0  0  0  0  0
   13.2842   -0.9545   14.2970 H   0  0  0  0  0  0  0  0  0  0  0  0
   12.8448   -0.5103   16.7234 H   0  0  0  0  0  0  0  0  0  0  0  0
   11.2208   -1.2071   16.5311 H   0  0  0  0  0  0  0  0  0  0  0  0
   13.4076   -1.7812   18.2185 H   0  0  0  0  0  0  0  0  0  0  0  0
   14.7912   -4.6018   16.4334 H   0  0  0  0  0  0  0  0  0  0  0  0
   16.9532   -5.4764   17.1582 H   0  0  0  0  0  0  0  0  0  0  0  0
   18.7357   -5.5126   18.9262 H   0  0  0  0  0  0  0  0  0  0  0  0
   20.0064   -4.4299   20.6825 H   0  0  0  0  0  0  0  0  0  0  0  0
   18.5343   -5.1512   21.3433 H   0  0  0  0  0  0  0  0  0  0  0  0
   18.6440   -3.3999   21.1311 H   0  0  0  0  0  0  0  0  0  0  0  0
   18.8305   -3.8448   17.3850 H   0  0  0  0  0  0  0  0  0  0  0  0
   18.2523   -1.8806   19.5182 H   0  0  0  0  0  0  0  0  0  0  0  0
   19.3096   -1.5004   18.1977 H   0  0  0  0  0  0  0  0  0  0  0  0
   16.3907   -2.2312   17.9044 H   0  0  0  0  0  0  0  0  0  0  0  0
   17.3766   -2.9278   15.7890 H   0  0  0  0  0  0  0  0  0  0  0  0
   18.3889   -1.4755   15.7487 H   0  0  0  0  0  0  0  0  0  0  0  0
   16.3738   -1.0116   14.3797 H   0  0  0  0  0  0  0  0  0  0  0  0
   15.3265   -1.5544   15.6967 H   0  0  0  0  0  0  0  0  0  0  0  0
   17.1499    0.9058   15.6656 H   0  0  0  0  0  0  0  0  0  0  0  0
   15.4036    0.8396   16.0597 H   0  0  0  0  0  0  0  0  0  0  0  0
   16.3479   -3.6958   21.0551 H   0  0  0  0  0  0  0  0  0  0  0  0
   14.1937   -2.8376   20.3206 H   0  0  0  0  0  0  0  0  0  0  0  0
  1  2  1  0
  2  3  1  0
  3  4  2  0
  3  5  1  0
  5  6  1  0
  6  7  2  0
  7  8  1  0
  8  9  2  0
  9 10  1  0
 10 11  1  0
 10 12  1  0
 12 13  1  0
 13 14  1  0
 14 15  1  0
 15 16  1  0
 16 17  1  0
 17 18  1  0
 18 19  2  0
 18 20  2  0
  9 21  1  0
 21 22  2  0
 22  6  1  0
 18 14  1  0
  1 23  1  0
  1 24  1  0
  1 25  1  0
  2 26  1  0
  2 27  1  0
  5 28  1  0
  7 29  1  0
  8 30  1  0
 10 31  1  0
 11 32  1  0
 11 33  1  0
 11 34  1  0
 12 35  1  0
 13 36  1  0
 13 37  1  0
 14 38  1  0
 15 39  1  0
 15 40  1  0
 16 41  1  0
 16 42  1  0
 17 43  1  0
 17 44  1  0
 21 45  1  0
 22 46  1  0
M  END
>  <Energy>  (216) 
42.734339015963506

>  <compound_id>  (216) 
62045

>  <target_id>  (216) 
1

>  <reference_id>  (216) 
27

>  <inspiration_ids>  (216) 
[93, 27]

>  <energy_score>  (216) 
-54.10049038280127

>  <distance_score>  (216) 
1.4899640939778929

>  <path>  (216) 
/opt/xchem-fragalysis-2/maxwin/BulkDock/SCRATCH/511021/C62045-P27/C62045-P27.minimised.mol

>  <scratch_subdir>  (216) 
/opt/xchem-fragalysis-2/maxwin/BulkDock/SCRATCH/511021/C62045-P27

>  <fragmenstein_runtime>  (216) 
6.156196594238281

>  <fragmenstein_outcome>  (216) 
too moved

>  <fragmenstein_mode>  (216) 
expansion

>  <fragmenstein_error>  (216) 


$$$$
C62051-P93
     RDKit          3D

 43 44  0  0  0  0  0  0  0  0999 V2000
   12.5080   -1.1252   14.6205 C   0  0  0  0  0  0  0  0  0  0  0  0
   12.3471   -1.4977   16.0829 C   0  0  0  0  0  0  0  0  0  0  0  0
   13.0407   -2.8232   16.3731 C   0  0  0  0  0  0  0  0  0  0  0  0
   12.9440   -3.7313   15.6495 O   0  0  0  0  0  0  0  0  0  0  0  0
   13.8939   -2.6471   17.6537 N   0  0  0  0  0  0  0  0  0  0  0  0
   14.8369   -3.4845   18.2292 C   0  0  0  0  0  0  0  0  0  0  0  0
   15.5346   -4.3727   17.4220 C   0  0  0  0  0  0  0  0  0  0  0  0
   16.7415   -4.9086   17.8656 C   0  0  0  0  0  0  0  0  0  0  0  0
   17.2583   -4.5383   19.1142 C   0  0  0  0  0  0  0  0  0  0  0  0
   18.7372   -4.7019   19.4101 C   0  0  0  0  0  0  0  0  0  0  0  0
   19.1303   -6.1820   19.4502 C   0  0  0  0  0  0  0  0  0  0  0  0
   19.5836   -4.0127   18.4142 N   0  0  0  0  0  0  0  0  0  0  0  0
   19.5233   -2.5438   18.4301 C   0  0  0  0  0  0  0  0  0  0  0  0
   18.3607   -1.8836   17.7028 C   0  0  0  0  0  0  0  0  0  0  0  0
   18.0273   -2.2028   16.3791 C   0  0  0  0  0  0  0  0  0  0  0  0
   16.9378   -1.5880   15.7486 C   0  0  0  0  0  0  0  0  0  0  0  0
   16.2005   -0.6091   16.4085 C   0  0  0  0  0  0  0  0  0  0  0  0
   16.5572   -0.2382   17.7028 C   0  0  0  0  0  0  0  0  0  0  0  0
   17.6259   -0.8722   18.3452 C   0  0  0  0  0  0  0  0  0  0  0  0
   16.4476   -3.8074   19.9939 C   0  0  0  0  0  0  0  0  0  0  0  0
   15.2429   -3.2651   19.5437 C   0  0  0  0  0  0  0  0  0  0  0  0
   12.0685   -1.8847   13.9653 H   0  0  0  0  0  0  0  0  0  0  0  0
   13.5651   -1.0303   14.3524 H   0  0  0  0  0  0  0  0  0  0  0  0
   12.0127   -0.1718   14.4125 H   0  0  0  0  0  0  0  0  0  0  0  0
   11.2836   -1.6236   16.2876 H   0  0  0  0  0  0  0  0  0  0  0  0
   12.7314   -0.6843   16.7032 H   0  0  0  0  0  0  0  0  0  0  0  0
   13.6774   -1.7647   18.0829 H   0  0  0  0  0  0  0  0  0  0  0  0
   15.2298   -4.5431   16.3919 H   0  0  0  0  0  0  0  0  0  0  0  0
   17.3383   -5.4908   17.1684 H   0  0  0  0  0  0  0  0  0  0  0  0
   18.9629   -4.2905   20.4024 H   0  0  0  0  0  0  0  0  0  0  0  0
   18.5257   -6.7247   20.1858 H   0  0  0  0  0  0  0  0  0  0  0  0
   20.1823   -6.2960   19.7357 H   0  0  0  0  0  0  0  0  0  0  0  0
   18.9942   -6.6765   18.4817 H   0  0  0  0  0  0  0  0  0  0  0  0
   19.3695   -4.3533   17.4820 H   0  0  0  0  0  0  0  0  0  0  0  0
   19.5807   -2.1880   19.4664 H   0  0  0  0  0  0  0  0  0  0  0  0
   20.4375   -2.1759   17.9473 H   0  0  0  0  0  0  0  0  0  0  0  0
   18.5940   -2.9522   15.8332 H   0  0  0  0  0  0  0  0  0  0  0  0
   16.6729   -1.8755   14.7336 H   0  0  0  0  0  0  0  0  0  0  0  0
   15.3721   -0.1209   15.9059 H   0  0  0  0  0  0  0  0  0  0  0  0
   16.0032    0.5402   18.2199 H   0  0  0  0  0  0  0  0  0  0  0  0
   17.8758   -0.5783   19.3623 H   0  0  0  0  0  0  0  0  0  0  0  0
   16.8111   -3.5303   20.9806 H   0  0  0  0  0  0  0  0  0  0  0  0
   14.6868   -2.5960   20.1950 H   0  0  0  0  0  0  0  0  0  0  0  0
  1  2  1  0
  2  3  1  0
  3  4  2  0
  3  5  1  0
  5  6  1  0
  6  7  2  0
  7  8  1  0
  8  9  2  0
  9 10  1  0
 10 11  1  0
 10 12  1  0
 12 13  1  0
 13 14  1  0
 14 15  2  0
 15 16  1  0
 16 17  2  0
 17 18  1  0
 18 19  2  0
  9 20  1  0
 20 21  2  0
 21  6  1  0
 19 14  1  0
  1 22  1  0
  1 23  1  0
  1 24  1  0
  2 25  1  0
  2 26  1  0
  5 27  1  0
  7 28  1  0
  8 29  1  0
 10 30  1  0
 11 31  1  0
 11 32  1  0
 11 33  1  0
 12 34  1  0
 13 35  1  0
 13 36  1  0
 15 37  1  0
 16 38  1  0
 17 39  1  0
 18 40  1  0
 19 41  1  0
 20 42  1  0
 21 43  1  0
M  END
>  <Energy>  (217) 
42.991353213796486

>  <compound_id>  (217) 
62051

>  <target_id>  (217) 
1

>  <reference_id>  (217) 
93

>  <inspiration_ids>  (217) 
[93, 27]

>  <energy_score>  (217) 
-20.77345825387294

>  <distance_score>  (217) 
1.3626453943578138

>  <path>  (217) 
/opt/xchem-fragalysis-2/maxwin/BulkDock/SCRATCH/511021/C62051-P93/C62051-P93.minimised.mol

>  <scratch_subdir>  (217) 
/opt/xchem-fragalysis-2/maxwin/BulkDock/SCRATCH/511021/C62051-P93

>  <fragmenstein_runtime>  (217) 
9.368897676467896

>  <fragmenstein_outcome>  (217) 
too moved

>  <fragmenstein_mode>  (217) 
expansion

>  <fragmenstein_error>  (217) 


$$$$
C62051-P27
     RDKit          3D

 43 44  0  0  0  0  0  0  0  0999 V2000
   11.3270   -2.1574   15.0976 C   0  0  0  0  0  0  0  0  0  0  0  0
   12.4188   -1.4424   15.8474 C   0  0  0  0  0  0  0  0  0  0  0  0
   13.6544   -2.3142   15.8876 C   0  0  0  0  0  0  0  0  0  0  0  0
   14.4525   -2.2862   15.0321 O   0  0  0  0  0  0  0  0  0  0  0  0
   13.6398   -3.1088   17.2314 N   0  0  0  0  0  0  0  0  0  0  0  0
   14.6089   -3.9203   17.8101 C   0  0  0  0  0  0  0  0  0  0  0  0
   15.7041   -4.3456   17.0655 C   0  0  0  0  0  0  0  0  0  0  0  0
   16.8080   -4.9038   17.7037 C   0  0  0  0  0  0  0  0  0  0  0  0
   16.8551   -4.9657   19.1032 C   0  0  0  0  0  0  0  0  0  0  0  0
   18.1771   -5.1672   19.8196 C   0  0  0  0  0  0  0  0  0  0  0  0
   18.6768   -6.6025   19.6288 C   0  0  0  0  0  0  0  0  0  0  0  0
   19.2317   -4.2350   19.3725 N   0  0  0  0  0  0  0  0  0  0  0  0
   18.9640   -2.8101   19.6210 C   0  0  0  0  0  0  0  0  0  0  0  0
   18.2002   -2.0812   18.5266 C   0  0  0  0  0  0  0  0  0  0  0  0
   16.9953   -1.4255   18.8258 C   0  0  0  0  0  0  0  0  0  0  0  0
   16.2613   -0.7861   17.8232 C   0  0  0  0  0  0  0  0  0  0  0  0
   16.7292   -0.7808   16.5139 C   0  0  0  0  0  0  0  0  0  0  0  0
   17.9484   -1.3873   16.2114 C   0  0  0  0  0  0  0  0  0  0  0  0
   18.6864   -2.0249   17.2120 C   0  0  0  0  0  0  0  0  0  0  0  0
   15.6898   -4.6793   19.8320 C   0  0  0  0  0  0  0  0  0  0  0  0
   14.5581   -4.1743   19.1827 C   0  0  0  0  0  0  0  0  0  0  0  0
   11.1000   -3.1261   15.5539 H   0  0  0  0  0  0  0  0  0  0  0  0
   11.6266   -2.3496   14.0620 H   0  0  0  0  0  0  0  0  0  0  0  0
   10.4125   -1.5574   15.0891 H   0  0  0  0  0  0  0  0  0  0  0  0
   12.0976   -1.1666   16.8527 H   0  0  0  0  0  0  0  0  0  0  0  0
   12.6789   -0.5056   15.3412 H   0  0  0  0  0  0  0  0  0  0  0  0
   12.8333   -2.8368   17.7765 H   0  0  0  0  0  0  0  0  0  0  0  0
   15.7544   -4.1750   15.9930 H   0  0  0  0  0  0  0  0  0  0  0  0
   17.6803   -5.1492   17.1037 H   0  0  0  0  0  0  0  0  0  0  0  0
   18.0331   -5.0203   20.8978 H   0  0  0  0  0  0  0  0  0  0  0  0
   17.9303   -7.3244   19.9797 H   0  0  0  0  0  0  0  0  0  0  0  0
   19.5971   -6.7734   20.1989 H   0  0  0  0  0  0  0  0  0  0  0  0
   18.8878   -6.8311   18.5776 H   0  0  0  0  0  0  0  0  0  0  0  0
   19.4203   -4.3753   18.3843 H   0  0  0  0  0  0  0  0  0  0  0  0
   18.4764   -2.6774   20.5948 H   0  0  0  0  0  0  0  0  0  0  0  0
   19.9343   -2.3059   19.7141 H   0  0  0  0  0  0  0  0  0  0  0  0
   16.6014   -1.4393   19.8392 H   0  0  0  0  0  0  0  0  0  0  0  0
   15.3191   -0.3050   18.0658 H   0  0  0  0  0  0  0  0  0  0  0  0
   16.1541   -0.3029   15.7257 H   0  0  0  0  0  0  0  0  0  0  0  0
   18.3150   -1.3755   15.1884 H   0  0  0  0  0  0  0  0  0  0  0  0
   19.6322   -2.4941   16.9547 H   0  0  0  0  0  0  0  0  0  0  0  0
   15.6862   -4.7492   20.9174 H   0  0  0  0  0  0  0  0  0  0  0  0
   13.6982   -3.8714   19.7763 H   0  0  0  0  0  0  0  0  0  0  0  0
  1  2  1  0
  2  3  1  0
  3  4  2  0
  3  5  1  0
  5  6  1  0
  6  7  2  0
  7  8  1  0
  8  9  2  0
  9 10  1  0
 10 11  1  0
 10 12  1  0
 12 13  1  0
 13 14  1  0
 14 15  2  0
 15 16  1  0
 16 17  2  0
 17 18  1  0
 18 19  2  0
  9 20  1  0
 20 21  2  0
 21  6  1  0
 19 14  1  0
  1 22  1  0
  1 23  1  0
  1 24  1  0
  2 25  1  0
  2 26  1  0
  5 27  1  0
  7 28  1  0
  8 29  1  0
 10 30  1  0
 11 31  1  0
 11 32  1  0
 11 33  1  0
 12 34  1  0
 13 35  1  0
 13 36  1  0
 15 37  1  0
 16 38  1  0
 17 39  1  0
 18 40  1  0
 19 41  1  0
 20 42  1  0
 21 43  1  0
M  END
>  <Energy>  (218) 
39.103026116358272

>  <compound_id>  (218) 
62051

>  <target_id>  (218) 
1

>  <reference_id>  (218) 
27

>  <inspiration_ids>  (218) 
[93, 27]

>  <energy_score>  (218) 
-24.661785351310527

>  <distance_score>  (218) 
1.4536964090195208

>  <path>  (218) 
/opt/xchem-fragalysis-2/maxwin/BulkDock/SCRATCH/511021/C62051-P27/C62051-P27.minimised.mol

>  <scratch_subdir>  (218) 
/opt/xchem-fragalysis-2/maxwin/BulkDock/SCRATCH/511021/C62051-P27

>  <fragmenstein_runtime>  (218) 
9.520658254623413

>  <fragmenstein_outcome>  (218) 
too moved

>  <fragmenstein_mode>  (218) 
expansion

>  <fragmenstein_error>  (218) 


$$$$
C60628-P123
     RDKit          3D

 31 32  0  0  0  0  0  0  0  0999 V2000
  -12.5589  -25.1767   26.5670 C   0  0  0  0  0  0  0  0  0  0  0  0
  -11.9684  -23.9906   25.8238 C   0  0  0  0  0  0  0  0  0  0  0  0
  -11.8092  -22.8548   26.6775 O   0  0  0  0  0  0  0  0  0  0  0  0
  -10.8020  -22.9151   27.5738 C   0  0  0  0  0  0  0  0  0  0  0  0
   -9.9614  -23.7976   27.6583 O   0  0  0  0  0  0  0  0  0  0  0  0
  -10.8837  -21.8076   28.5565 C   0  0  0  0  0  0  0  0  0  0  0  0
  -10.1658  -20.6733   29.0689 C   0  0  0  0  0  0  0  0  0  0  0  0
   -9.0562  -19.2361   28.1862 C   0  0  0  0  0  0  0  0  0  0  0  0
   -9.4668  -18.0690   27.2539 N   0  0  0  0  0  0  0  0  0  0  0  0
   -9.0045  -16.7336   27.0801 C   0  0  0  0  0  0  0  0  0  0  0  0
   -8.0977  -16.7917   28.0665 C   0  0  0  0  0  0  0  0  0  0  0  0
   -8.1642  -18.1737   28.6025 N   0  0  0  0  0  0  0  0  0  0  0  0
  -10.6630  -21.0266   30.7910 C   0  0  0  0  0  0  0  0  0  0  0  0
  -11.1154  -22.4267   31.3951 C   0  0  0  0  0  0  0  0  0  0  0  0
  -11.7863  -23.2493   30.4225 N   0  0  0  0  0  0  0  0  0  0  0  0
  -12.1275  -22.4091   29.2975 C   0  0  0  0  0  0  0  0  0  0  0  0
  -13.4973  -24.8995   27.0568 H   0  0  0  0  0  0  0  0  0  0  0  0
  -11.8855  -25.5352   27.3511 H   0  0  0  0  0  0  0  0  0  0  0  0
  -12.7532  -26.0036   25.8777 H   0  0  0  0  0  0  0  0  0  0  0  0
  -11.0201  -24.2568   25.3470 H   0  0  0  0  0  0  0  0  0  0  0  0
  -12.6587  -23.6784   25.0357 H   0  0  0  0  0  0  0  0  0  0  0  0
   -9.3796  -15.9928   26.3868 H   0  0  0  0  0  0  0  0  0  0  0  0
   -7.3419  -16.1211   28.3793 H   0  0  0  0  0  0  0  0  0  0  0  0
   -7.4940  -18.4795   29.2647 H   0  0  0  0  0  0  0  0  0  0  0  0
  -10.1374  -20.5317   31.6002 H   0  0  0  0  0  0  0  0  0  0  0  0
  -11.6617  -20.6660   30.8209 H   0  0  0  0  0  0  0  0  0  0  0  0
  -11.8304  -22.2167   32.2039 H   0  0  0  0  0  0  0  0  0  0  0  0
  -10.3299  -22.9980   31.8913 H   0  0  0  0  0  0  0  0  0  0  0  0
  -11.1955  -24.0289   30.1307 H   0  0  0  0  0  0  0  0  0  0  0  0
  -12.7881  -21.5972   29.5972 H   0  0  0  0  0  0  0  0  0  0  0  0
  -12.7957  -23.0079   28.6685 H   0  0  0  0  0  0  0  0  0  0  0  0
  1  2  1  0
  2  3  1  0
  3  4  1  0
  4  5  2  0
  4  6  1  0
  6  7  2  0
  7  8  1  0
  8  9  2  0
  9 10  1  0
 10 11  2  0
 11 12  1  0
  7 13  1  0
 13 14  1  0
 14 15  1  0
 15 16  1  0
 16  6  1  0
 12  8  1  0
  1 17  1  0
  1 18  1  0
  1 19  1  0
  2 20  1  0
  2 21  1  0
 10 22  1  0
 11 23  1  0
 12 24  1  0
 13 25  1  0
 13 26  1  0
 14 27  1  0
 14 28  1  0
 15 29  1  0
 16 30  1  0
 16 31  1  0
M  END
>  <Energy>  (219) 
340.69835605297288

>  <compound_id>  (219) 
60628

>  <target_id>  (219) 
1

>  <reference_id>  (219) 
123

>  <inspiration_ids>  (219) 
[123, 116]

>  <energy_score>  (219) 
305.34023410389017

>  <distance_score>  (219) 
6.124649792491696

>  <path>  (219) 
/opt/xchem-fragalysis-2/maxwin/BulkDock/SCRATCH/511021/C60628-P123/C60628-P123.minimised.mol

>  <scratch_subdir>  (219) 
/opt/xchem-fragalysis-2/maxwin/BulkDock/SCRATCH/511021/C60628-P123

>  <fragmenstein_runtime>  (219) 
19.15425181388855

>  <fragmenstein_outcome>  (219) 
too moved

>  <fragmenstein_mode>  (219) 
expansion

>  <fragmenstein_error>  (219) 


$$$$
C60628-P116
     RDKit          3D

 31 32  0  0  0  0  0  0  0  0999 V2000
  -10.9544  -24.2727   26.4547 C   0  0  0  0  0  0  0  0  0  0  0  0
  -10.6637  -23.7559   27.8461 C   0  0  0  0  0  0  0  0  0  0  0  0
   -9.6661  -22.7087   28.0910 O   0  0  0  0  0  0  0  0  0  0  0  0
  -10.1505  -21.3507   27.8771 C   0  0  0  0  0  0  0  0  0  0  0  0
  -11.2453  -21.3524   27.2690 O   0  0  0  0  0  0  0  0  0  0  0  0
   -9.0019  -19.7866   28.5546 C   0  0  0  0  0  0  0  0  0  0  0  0
   -7.8003  -19.1810   29.8556 C   0  0  0  0  0  0  0  0  0  0  0  0
   -6.7117  -17.9397   28.9231 C   0  0  0  0  0  0  0  0  0  0  0  0
   -5.9885  -17.3214   29.8165 N   0  0  0  0  0  0  0  0  0  0  0  0
   -5.7165  -16.0923   29.6978 C   0  0  0  0  0  0  0  0  0  0  0  0
   -6.5637  -15.4075   28.9015 C   0  0  0  0  0  0  0  0  0  0  0  0
   -7.4486  -16.6216   28.3004 N   0  0  0  0  0  0  0  0  0  0  0  0
   -7.3125  -20.4375   31.5686 C   0  0  0  0  0  0  0  0  0  0  0  0
   -9.0732  -21.7163   32.2519 C   0  0  0  0  0  0  0  0  0  0  0  0
  -10.6592  -21.1511   31.2474 N   0  0  0  0  0  0  0  0  0  0  0  0
  -10.6117  -20.7478   29.5587 C   0  0  0  0  0  0  0  0  0  0  0  0
  -11.5467  -23.5552   25.8854 H   0  0  0  0  0  0  0  0  0  0  0  0
  -11.5522  -25.1888   26.5090 H   0  0  0  0  0  0  0  0  0  0  0  0
  -10.0434  -24.5109   25.9104 H   0  0  0  0  0  0  0  0  0  0  0  0
  -11.6076  -23.4417   28.2901 H   0  0  0  0  0  0  0  0  0  0  0  0
  -10.2882  -24.6155   28.3790 H   0  0  0  0  0  0  0  0  0  0  0  0
   -4.7532  -15.9150   30.0234 H   0  0  0  0  0  0  0  0  0  0  0  0
   -6.9297  -14.4002   28.6824 H   0  0  0  0  0  0  0  0  0  0  0  0
   -8.3986  -16.5488   27.9667 H   0  0  0  0  0  0  0  0  0  0  0  0
   -6.3911  -20.7042   32.1193 H   0  0  0  0  0  0  0  0  0  0  0  0
   -7.2786  -19.4978   32.3257 H   0  0  0  0  0  0  0  0  0  0  0  0
   -8.8138  -21.2533   33.3747 H   0  0  0  0  0  0  0  0  0  0  0  0
   -9.3925  -22.8385   32.4976 H   0  0  0  0  0  0  0  0  0  0  0  0
  -11.3305  -21.9471   31.2728 H   0  0  0  0  0  0  0  0  0  0  0  0
  -10.8634  -21.8264   29.4672 H   0  0  0  0  0  0  0  0  0  0  0  0
  -11.6465  -20.4369   29.3435 H   0  0  0  0  0  0  0  0  0  0  0  0
  1  2  1  0
  2  3  1  0
  3  4  1  0
  4  5  2  0
  4  6  1  0
  6  7  2  0
  7  8  1  0
  8  9  2  0
  9 10  1  0
 10 11  2  0
 11 12  1  0
  7 13  1  0
 13 14  1  0
 14 15  1  0
 15 16  1  0
 16  6  1  0
 12  8  1  0
  1 17  1  0
  1 18  1  0
  1 19  1  0
  2 20  1  0
  2 21  1  0
 10 22  1  0
 11 23  1  0
 12 24  1  0
 13 25  1  0
 13 26  1  0
 14 27  1  0
 14 28  1  0
 15 29  1  0
 16 30  1  0
 16 31  1  0
M  END
>  <Energy>  (220) 
986.9086764150411

>  <compound_id>  (220) 
60628

>  <target_id>  (220) 
1

>  <reference_id>  (220) 
116

>  <inspiration_ids>  (220) 
[123, 116]

>  <energy_score>  (220) 
951.5505544659611

>  <distance_score>  (220) 
5.3262200420476855

>  <path>  (220) 
/opt/xchem-fragalysis-2/maxwin/BulkDock/SCRATCH/511021/C60628-P116/C60628-P116.minimised.mol

>  <scratch_subdir>  (220) 
/opt/xchem-fragalysis-2/maxwin/BulkDock/SCRATCH/511021/C60628-P116

>  <fragmenstein_runtime>  (220) 
15.492173194885254

>  <fragmenstein_outcome>  (220) 
too moved

>  <fragmenstein_mode>  (220) 
expansion

>  <fragmenstein_error>  (220) 


$$$$
C60629-P123
     RDKit          3D

 40 41  0  0  0  0  0  0  0  0999 V2000
  -11.9847  -24.4266   28.4586 C   0  0  0  0  0  0  0  0  0  0  0  0
  -12.4576  -23.2124   29.2374 C   0  0  0  0  0  0  0  0  0  0  0  0
  -11.4890  -22.9156   30.2377 O   0  0  0  0  0  0  0  0  0  0  0  0
  -11.8855  -22.2334   31.3412 C   0  0  0  0  0  0  0  0  0  0  0  0
  -13.0033  -21.8532   31.6192 O   0  0  0  0  0  0  0  0  0  0  0  0
  -10.6787  -21.9775   32.1472 C   0  0  0  0  0  0  0  0  0  0  0  0
   -9.9992  -23.1112   32.5345 C   0  0  0  0  0  0  0  0  0  0  0  0
   -8.5599  -22.8854   33.1976 C   0  0  0  0  0  0  0  0  0  0  0  0
   -7.9626  -21.1754   33.2627 C   0  0  0  0  0  0  0  0  0  0  0  0
   -8.7818  -19.8442   33.2738 N   0  0  0  0  0  0  0  0  0  0  0  0
   -7.5976  -18.3193   33.2760 C   0  0  0  0  0  0  0  0  0  0  0  0
   -6.1471  -17.4401   32.1451 C   0  0  0  0  0  0  0  0  0  0  0  0
   -5.4993  -16.4246   30.4624 C   0  0  0  0  0  0  0  0  0  0  0  0
   -3.7800  -16.1316   29.5114 C   0  0  0  0  0  0  0  0  0  0  0  0
   -3.6699  -16.5028   28.1908 N   0  0  0  0  0  0  0  0  0  0  0  0
   -2.4967  -16.4285   27.4363 C   0  0  0  0  0  0  0  0  0  0  0  0
   -2.0615  -15.2380   27.9625 C   0  0  0  0  0  0  0  0  0  0  0  0
   -2.7402  -15.0654   29.3732 N   0  0  0  0  0  0  0  0  0  0  0  0
  -10.2101  -20.3451   32.5090 C   0  0  0  0  0  0  0  0  0  0  0  0
  -12.6882  -24.6740   27.6587 H   0  0  0  0  0  0  0  0  0  0  0  0
  -11.8825  -25.2920   29.1217 H   0  0  0  0  0  0  0  0  0  0  0  0
  -10.9983  -24.2435   28.0193 H   0  0  0  0  0  0  0  0  0  0  0  0
  -13.4383  -23.4031   29.6715 H   0  0  0  0  0  0  0  0  0  0  0  0
  -12.5062  -22.3562   28.5615 H   0  0  0  0  0  0  0  0  0  0  0  0
  -10.3258  -24.1243   32.3199 H   0  0  0  0  0  0  0  0  0  0  0  0
   -7.9104  -23.4976   32.5935 H   0  0  0  0  0  0  0  0  0  0  0  0
   -8.3908  -23.3553   34.1389 H   0  0  0  0  0  0  0  0  0  0  0  0
   -6.9861  -21.1431   32.7781 H   0  0  0  0  0  0  0  0  0  0  0  0
   -7.7356  -20.9374   34.2444 H   0  0  0  0  0  0  0  0  0  0  0  0
   -7.0538  -18.6398   34.1632 H   0  0  0  0  0  0  0  0  0  0  0  0
   -8.2197  -17.5052   33.6846 H   0  0  0  0  0  0  0  0  0  0  0  0
   -6.8330  -17.8324   31.4269 H   0  0  0  0  0  0  0  0  0  0  0  0
   -6.1830  -16.5449   32.7675 H   0  0  0  0  0  0  0  0  0  0  0  0
   -5.8856  -15.4026   30.4095 H   0  0  0  0  0  0  0  0  0  0  0  0
   -5.7853  -17.0392   29.6084 H   0  0  0  0  0  0  0  0  0  0  0  0
   -2.2728  -17.1795   26.6968 H   0  0  0  0  0  0  0  0  0  0  0  0
   -1.1328  -14.7860   27.8459 H   0  0  0  0  0  0  0  0  0  0  0  0
   -2.8472  -14.1074   29.6343 H   0  0  0  0  0  0  0  0  0  0  0  0
  -10.2717  -20.0951   31.4941 H   0  0  0  0  0  0  0  0  0  0  0  0
  -11.0389  -19.9222   33.0847 H   0  0  0  0  0  0  0  0  0  0  0  0
  1  2  1  0
  2  3  1  0
  3  4  1  0
  4  5  2  0
  4  6  1  0
  6  7  2  0
  7  8  1  0
  8  9  1  0
  9 10  1  0
 10 11  1  0
 11 12  1  0
 12 13  1  0
 13 14  1  0
 14 15  2  0
 15 16  1  0
 16 17  2  0
 17 18  1  0
 10 19  1  0
 19  6  1  0
 18 14  1  0
  1 20  1  0
  1 21  1  0
  1 22  1  0
  2 23  1  0
  2 24  1  0
  7 25  1  0
  8 26  1  0
  8 27  1  0
  9 28  1  0
  9 29  1  0
 11 30  1  0
 11 31  1  0
 12 32  1  0
 12 33  1  0
 13 34  1  0
 13 35  1  0
 16 36  1  0
 17 37  1  0
 18 38  1  0
 19 39  1  0
 19 40  1  0
M  END
>  <Energy>  (221) 
540.20992649826655

>  <compound_id>  (221) 
60629

>  <target_id>  (221) 
1

>  <reference_id>  (221) 
123

>  <inspiration_ids>  (221) 
[123, 116]

>  <energy_score>  (221) 
491.0044035613239

>  <distance_score>  (221) 
3.655529862288428

>  <path>  (221) 
/opt/xchem-fragalysis-2/maxwin/BulkDock/SCRATCH/511021/C60629-P123/C60629-P123.minimised.mol

>  <scratch_subdir>  (221) 
/opt/xchem-fragalysis-2/maxwin/BulkDock/SCRATCH/511021/C60629-P123

>  <fragmenstein_runtime>  (221) 
19.67142605781555

>  <fragmenstein_outcome>  (221) 
too moved

>  <fragmenstein_mode>  (221) 
expansion

>  <fragmenstein_error>  (221) 


$$$$
C60629-P116
     RDKit          3D

 40 41  0  0  0  0  0  0  0  0999 V2000
  -11.7529  -27.4395   26.9300 C   0  0  0  0  0  0  0  0  0  0  0  0
  -11.8084  -26.0969   26.2294 C   0  0  0  0  0  0  0  0  0  0  0  0
  -11.0652  -25.0761   26.8885 O   0  0  0  0  0  0  0  0  0  0  0  0
  -11.5079  -23.8054   26.6602 C   0  0  0  0  0  0  0  0  0  0  0  0
  -12.3102  -23.4808   25.7984 O   0  0  0  0  0  0  0  0  0  0  0  0
  -10.9903  -22.8462   27.6496 C   0  0  0  0  0  0  0  0  0  0  0  0
  -10.9556  -23.2152   28.8777 C   0  0  0  0  0  0  0  0  0  0  0  0
  -11.6065  -22.3069   29.9001 C   0  0  0  0  0  0  0  0  0  0  0  0
  -11.2278  -20.8804   29.8765 C   0  0  0  0  0  0  0  0  0  0  0  0
  -10.1748  -20.3099   28.9309 N   0  0  0  0  0  0  0  0  0  0  0  0
   -8.7779  -18.8419   28.3967 C   0  0  0  0  0  0  0  0  0  0  0  0
   -6.9061  -17.8519   28.5442 C   0  0  0  0  0  0  0  0  0  0  0  0
   -5.6988  -16.5740   29.3392 C   0  0  0  0  0  0  0  0  0  0  0  0
   -4.0352  -16.5415   28.3345 C   0  0  0  0  0  0  0  0  0  0  0  0
   -3.0273  -15.5279   28.4978 N   0  0  0  0  0  0  0  0  0  0  0  0
   -1.8741  -15.8274   27.8749 C   0  0  0  0  0  0  0  0  0  0  0  0
   -2.0686  -16.9726   27.1654 C   0  0  0  0  0  0  0  0  0  0  0  0
   -3.2815  -17.4637   27.5960 N   0  0  0  0  0  0  0  0  0  0  0  0
  -11.0273  -21.4135   27.6536 C   0  0  0  0  0  0  0  0  0  0  0  0
  -12.3138  -28.1720   26.3459 H   0  0  0  0  0  0  0  0  0  0  0  0
  -12.1802  -27.4469   27.9262 H   0  0  0  0  0  0  0  0  0  0  0  0
  -10.7327  -27.7932   27.0600 H   0  0  0  0  0  0  0  0  0  0  0  0
  -12.8567  -25.8134   26.0836 H   0  0  0  0  0  0  0  0  0  0  0  0
  -11.3332  -26.2404   25.2720 H   0  0  0  0  0  0  0  0  0  0  0  0
  -10.7385  -24.2527   28.9217 H   0  0  0  0  0  0  0  0  0  0  0  0
  -11.5684  -22.6346   30.9442 H   0  0  0  0  0  0  0  0  0  0  0  0
  -12.6795  -22.3278   29.7401 H   0  0  0  0  0  0  0  0  0  0  0  0
  -11.0354  -20.7340   30.9287 H   0  0  0  0  0  0  0  0  0  0  0  0
  -12.2158  -20.5146   29.5271 H   0  0  0  0  0  0  0  0  0  0  0  0
   -8.5162  -19.8446   28.2059 H   0  0  0  0  0  0  0  0  0  0  0  0
   -8.3316  -18.7661   29.3558 H   0  0  0  0  0  0  0  0  0  0  0  0
   -6.6316  -18.3275   29.5487 H   0  0  0  0  0  0  0  0  0  0  0  0
   -6.0478  -18.2782   27.9338 H   0  0  0  0  0  0  0  0  0  0  0  0
   -5.5733  -16.4876   30.3755 H   0  0  0  0  0  0  0  0  0  0  0  0
   -6.2126  -15.6250   29.1439 H   0  0  0  0  0  0  0  0  0  0  0  0
   -1.0219  -15.1939   28.0683 H   0  0  0  0  0  0  0  0  0  0  0  0
   -1.4508  -17.5397   26.4967 H   0  0  0  0  0  0  0  0  0  0  0  0
   -3.6287  -18.3696   27.3402 H   0  0  0  0  0  0  0  0  0  0  0  0
  -10.9529  -21.0887   26.6496 H   0  0  0  0  0  0  0  0  0  0  0  0
  -12.1208  -21.2407   27.7807 H   0  0  0  0  0  0  0  0  0  0  0  0
  1  2  1  0
  2  3  1  0
  3  4  1  0
  4  5  2  0
  4  6  1  0
  6  7  2  0
  7  8  1  0
  8  9  1  0
  9 10  1  0
 10 11  1  0
 11 12  1  0
 12 13  1  0
 13 14  1  0
 14 15  2  0
 15 16  1  0
 16 17  2  0
 17 18  1  0
 10 19  1  0
 19  6  1  0
 18 14  1  0
  1 20  1  0
  1 21  1  0
  1 22  1  0
  2 23  1  0
  2 24  1  0
  7 25  1  0
  8 26  1  0
  8 27  1  0
  9 28  1  0
  9 29  1  0
 11 30  1  0
 11 31  1  0
 12 32  1  0
 12 33  1  0
 13 34  1  0
 13 35  1  0
 16 36  1  0
 17 37  1  0
 18 38  1  0
 19 39  1  0
 19 40  1  0
M  END
>  <Energy>  (222) 
653.87967270868091

>  <compound_id>  (222) 
60629

>  <target_id>  (222) 
1

>  <reference_id>  (222) 
116

>  <inspiration_ids>  (222) 
[123, 116]

>  <energy_score>  (222) 
604.6741497717429

>  <distance_score>  (222) 
4.381494050041563

>  <path>  (222) 
/opt/xchem-fragalysis-2/maxwin/BulkDock/SCRATCH/511021/C60629-P116/C60629-P116.minimised.mol

>  <scratch_subdir>  (222) 
/opt/xchem-fragalysis-2/maxwin/BulkDock/SCRATCH/511021/C60629-P116

>  <fragmenstein_runtime>  (222) 
18.4963595867157

>  <fragmenstein_outcome>  (222) 
too moved

>  <fragmenstein_mode>  (222) 
expansion

>  <fragmenstein_error>  (222) 


$$$$
C60631-P123
     RDKit          3D

 37 39  0  0  0  0  0  0  0  0999 V2000
  -13.2559  -25.1571   26.4748 C   0  0  0  0  0  0  0  0  0  0  0  0
  -12.7773  -23.8664   25.8243 C   0  0  0  0  0  0  0  0  0  0  0  0
  -12.0974  -23.0295   26.7749 O   0  0  0  0  0  0  0  0  0  0  0  0
  -10.8266  -23.4481   26.9516 C   0  0  0  0  0  0  0  0  0  0  0  0
  -10.3686  -24.4050   26.3284 O   0  0  0  0  0  0  0  0  0  0  0  0
   -9.9879  -22.7565   28.0546 C   0  0  0  0  0  0  0  0  0  0  0  0
  -10.4924  -23.7915   29.1222 C   0  0  0  0  0  0  0  0  0  0  0  0
  -10.1082  -25.1135   29.5009 C   0  0  0  0  0  0  0  0  0  0  0  0
  -10.8936  -25.4469   30.5884 C   0  0  0  0  0  0  0  0  0  0  0  0
  -11.7678  -24.4401   30.8652 O   0  0  0  0  0  0  0  0  0  0  0  0
  -11.5076  -23.4844   29.9603 C   0  0  0  0  0  0  0  0  0  0  0  0
  -12.2395  -22.2588   29.8615 C   0  0  0  0  0  0  0  0  0  0  0  0
  -11.3197  -21.0560   29.5797 C   0  0  0  0  0  0  0  0  0  0  0  0
  -10.0721  -20.9939   28.4748 N   0  0  0  0  0  0  0  0  0  0  0  0
   -9.1997  -18.7714   28.0285 S   0  0  0  0  0  0  0  0  0  0  0  0
  -10.6002  -18.4035   29.0680 O   0  0  0  0  0  0  0  0  0  0  0  0
   -8.0680  -18.1490   28.5606 O   0  0  0  0  0  0  0  0  0  0  0  0
   -9.4945  -17.0202   26.7073 C   0  0  0  0  0  0  0  0  0  0  0  0
  -10.0276  -16.7736   25.5109 N   0  0  0  0  0  0  0  0  0  0  0  0
   -9.7188  -15.4642   25.1616 C   0  0  0  0  0  0  0  0  0  0  0  0
   -8.8930  -14.9121   26.0929 C   0  0  0  0  0  0  0  0  0  0  0  0
   -8.6541  -15.9453   26.9513 N   0  0  0  0  0  0  0  0  0  0  0  0
  -13.8501  -24.9455   27.3689 H   0  0  0  0  0  0  0  0  0  0  0  0
  -12.4203  -25.7852   26.7975 H   0  0  0  0  0  0  0  0  0  0  0  0
  -13.8636  -25.7365   25.7736 H   0  0  0  0  0  0  0  0  0  0  0  0
  -13.6245  -23.3402   25.3877 H   0  0  0  0  0  0  0  0  0  0  0  0
  -12.1194  -24.0575   24.9769 H   0  0  0  0  0  0  0  0  0  0  0  0
   -8.9124  -22.9519   27.9573 H   0  0  0  0  0  0  0  0  0  0  0  0
   -9.3418  -25.7384   29.0672 H   0  0  0  0  0  0  0  0  0  0  0  0
  -10.9548  -26.3112   31.2367 H   0  0  0  0  0  0  0  0  0  0  0  0
  -12.8466  -22.0805   30.7539 H   0  0  0  0  0  0  0  0  0  0  0  0
  -12.9157  -22.3988   29.0235 H   0  0  0  0  0  0  0  0  0  0  0  0
  -10.8440  -20.8437   30.5379 H   0  0  0  0  0  0  0  0  0  0  0  0
  -12.0919  -20.3946   29.1970 H   0  0  0  0  0  0  0  0  0  0  0  0
  -10.1052  -15.0202   24.2541 H   0  0  0  0  0  0  0  0  0  0  0  0
   -8.4324  -13.9395   26.1984 H   0  0  0  0  0  0  0  0  0  0  0  0
   -8.0740  -15.9530   27.7776 H   0  0  0  0  0  0  0  0  0  0  0  0
  1  2  1  0
  2  3  1  0
  3  4  1  0
  4  5  2  0
  4  6  1  0
  6  7  1  0
  7  8  1  0
  8  9  2  0
  9 10  1  0
 10 11  1  0
 11 12  1  0
 12 13  1  0
 13 14  1  0
 14 15  1  0
 15 16  2  0
 15 17  2  0
 15 18  1  0
 18 19  2  0
 19 20  1  0
 20 21  2  0
 21 22  1  0
 14  6  1  0
 22 18  1  0
 11  7  2  0
  1 23  1  0
  1 24  1  0
  1 25  1  0
  2 26  1  0
  2 27  1  0
  6 28  1  0
  8 29  1  0
  9 30  1  0
 12 31  1  0
 12 32  1  0
 13 33  1  0
 13 34  1  0
 20 35  1  0
 21 36  1  0
 22 37  1  0
M  END
>  <Energy>  (223) 
452.37023345309444

>  <compound_id>  (223) 
60631

>  <target_id>  (223) 
1

>  <reference_id>  (223) 
123

>  <inspiration_ids>  (223) 
[123, 116]

>  <energy_score>  (223) 
374.5562685172914

>  <distance_score>  (223) 
6.224839367709446

>  <path>  (223) 
/opt/xchem-fragalysis-2/maxwin/BulkDock/SCRATCH/511021/C60631-P123/C60631-P123.minimised.mol

>  <scratch_subdir>  (223) 
/opt/xchem-fragalysis-2/maxwin/BulkDock/SCRATCH/511021/C60631-P123

>  <fragmenstein_runtime>  (223) 
17.532092332839966

>  <fragmenstein_outcome>  (223) 
too moved

>  <fragmenstein_mode>  (223) 
expansion

>  <fragmenstein_error>  (223) 


$$$$
C60631-P116
     RDKit          3D

 37 39  0  0  0  0  0  0  0  0999 V2000
  -11.9343  -22.4101   28.3045 C   0  0  0  0  0  0  0  0  0  0  0  0
  -12.5625  -21.8329   29.5788 C   0  0  0  0  0  0  0  0  0  0  0  0
  -11.8806  -22.2507   30.7702 O   0  0  0  0  0  0  0  0  0  0  0  0
  -10.9446  -21.3764   31.0359 C   0  0  0  0  0  0  0  0  0  0  0  0
  -11.0116  -20.4590   30.2657 O   0  0  0  0  0  0  0  0  0  0  0  0
   -9.6361  -21.7534   32.4195 C   0  0  0  0  0  0  0  0  0  0  0  0
   -9.5942  -23.3547   32.6639 C   0  0  0  0  0  0  0  0  0  0  0  0
  -10.5204  -24.1691   32.2768 C   0  0  0  0  0  0  0  0  0  0  0  0
  -10.0038  -25.2569   32.8155 C   0  0  0  0  0  0  0  0  0  0  0  0
   -8.7325  -25.2165   32.4821 O   0  0  0  0  0  0  0  0  0  0  0  0
   -8.4904  -24.0577   33.1165 C   0  0  0  0  0  0  0  0  0  0  0  0
   -7.0958  -23.4995   33.8018 C   0  0  0  0  0  0  0  0  0  0  0  0
   -7.0143  -21.9965   33.9879 C   0  0  0  0  0  0  0  0  0  0  0  0
   -8.2800  -21.2202   33.7926 N   0  0  0  0  0  0  0  0  0  0  0  0
   -7.9041  -19.5657   34.3500 S   0  0  0  0  0  0  0  0  0  0  0  0
   -7.1076  -19.7167   35.5610 O   0  0  0  0  0  0  0  0  0  0  0  0
   -7.3361  -18.7244   33.3139 O   0  0  0  0  0  0  0  0  0  0  0  0
   -9.2885  -18.7037   34.9661 C   0  0  0  0  0  0  0  0  0  0  0  0
  -10.1160  -19.1614   35.8923 N   0  0  0  0  0  0  0  0  0  0  0  0
  -10.9804  -18.1417   36.1533 C   0  0  0  0  0  0  0  0  0  0  0  0
  -10.6832  -17.0508   35.3897 C   0  0  0  0  0  0  0  0  0  0  0  0
   -9.5659  -17.3973   34.6798 N   0  0  0  0  0  0  0  0  0  0  0  0
  -12.0005  -23.4870   28.2017 H   0  0  0  0  0  0  0  0  0  0  0  0
  -10.8681  -22.1880   28.2790 H   0  0  0  0  0  0  0  0  0  0  0  0
  -12.3824  -21.9791   27.4087 H   0  0  0  0  0  0  0  0  0  0  0  0
  -13.5681  -21.9218   29.9277 H   0  0  0  0  0  0  0  0  0  0  0  0
  -12.6720  -20.7640   29.3634 H   0  0  0  0  0  0  0  0  0  0  0  0
  -10.0205  -20.8846   32.9551 H   0  0  0  0  0  0  0  0  0  0  0  0
  -11.4314  -23.8586   31.9162 H   0  0  0  0  0  0  0  0  0  0  0  0
  -10.4834  -26.1775   33.1332 H   0  0  0  0  0  0  0  0  0  0  0  0
   -6.2131  -23.8418   33.2458 H   0  0  0  0  0  0  0  0  0  0  0  0
   -7.0107  -23.8277   34.8182 H   0  0  0  0  0  0  0  0  0  0  0  0
   -6.2263  -21.5597   33.3692 H   0  0  0  0  0  0  0  0  0  0  0  0
   -6.6529  -21.8544   35.0125 H   0  0  0  0  0  0  0  0  0  0  0  0
  -11.7880  -18.2535   36.8643 H   0  0  0  0  0  0  0  0  0  0  0  0
  -11.1588  -16.0881   35.2823 H   0  0  0  0  0  0  0  0  0  0  0  0
   -9.0454  -16.7828   34.0637 H   0  0  0  0  0  0  0  0  0  0  0  0
  1  2  1  0
  2  3  1  0
  3  4  1  0
  4  5  2  0
  4  6  1  0
  6  7  1  0
  7  8  1  0
  8  9  2  0
  9 10  1  0
 10 11  1  0
 11 12  1  0
 12 13  1  0
 13 14  1  0
 14 15  1  0
 15 16  2  0
 15 17  2  0
 15 18  1  0
 18 19  2  0
 19 20  1  0
 20 21  2  0
 21 22  1  0
 14  6  1  0
 22 18  1  0
 11  7  2  0
  1 23  1  0
  1 24  1  0
  1 25  1  0
  2 26  1  0
  2 27  1  0
  6 28  1  0
  8 29  1  0
  9 30  1  0
 12 31  1  0
 12 32  1  0
 13 33  1  0
 13 34  1  0
 20 35  1  0
 21 36  1  0
 22 37  1  0
M  END
>  <Energy>  (224) 
331.07422848899137

>  <compound_id>  (224) 
60631

>  <target_id>  (224) 
1

>  <reference_id>  (224) 
116

>  <inspiration_ids>  (224) 
[123, 116]

>  <energy_score>  (224) 
253.2602635531864

>  <distance_score>  (224) 
8.121415017129767

>  <path>  (224) 
/opt/xchem-fragalysis-2/maxwin/BulkDock/SCRATCH/511021/C60631-P116/C60631-P116.minimised.mol

>  <scratch_subdir>  (224) 
/opt/xchem-fragalysis-2/maxwin/BulkDock/SCRATCH/511021/C60631-P116

>  <fragmenstein_runtime>  (224) 
19.871617317199707

>  <fragmenstein_outcome>  (224) 
too moved

>  <fragmenstein_mode>  (224) 
expansion

>  <fragmenstein_error>  (224) 


$$$$
C60632-P123
     RDKit          3D

 37 39  0  0  0  0  0  0  0  0999 V2000
  -10.2028  -24.9564   29.0376 C   0  0  0  0  0  0  0  0  0  0  0  0
  -10.3856  -23.8698   27.9925 C   0  0  0  0  0  0  0  0  0  0  0  0
   -9.5495  -22.6943   28.2646 O   0  0  0  0  0  0  0  0  0  0  0  0
  -10.1618  -21.4625   27.9862 C   0  0  0  0  0  0  0  0  0  0  0  0
  -11.2704  -21.5771   27.4189 O   0  0  0  0  0  0  0  0  0  0  0  0
   -9.2432  -19.8160   28.3738 C   0  0  0  0  0  0  0  0  0  0  0  0
  -10.3406  -20.6003   29.9594 C   0  0  0  0  0  0  0  0  0  0  0  0
  -11.5365  -21.5126   30.0880 C   0  0  0  0  0  0  0  0  0  0  0  0
  -11.8139  -21.8360   31.4038 C   0  0  0  0  0  0  0  0  0  0  0  0
  -11.0971  -21.1135   32.2806 O   0  0  0  0  0  0  0  0  0  0  0  0
  -10.1633  -20.4147   31.6061 C   0  0  0  0  0  0  0  0  0  0  0  0
   -9.0123  -19.2125   32.5748 C   0  0  0  0  0  0  0  0  0  0  0  0
   -7.6719  -18.0975   31.1831 C   0  0  0  0  0  0  0  0  0  0  0  0
   -8.1584  -18.3320   29.1138 N   0  0  0  0  0  0  0  0  0  0  0  0
   -7.9856  -16.8924   27.8483 S   0  0  0  0  0  0  0  0  0  0  0  0
   -8.4206  -17.4041   26.6111 O   0  0  0  0  0  0  0  0  0  0  0  0
   -6.9212  -16.2010   28.4808 O   0  0  0  0  0  0  0  0  0  0  0  0
   -8.6850  -15.2200   27.0625 C   0  0  0  0  0  0  0  0  0  0  0  0
   -9.0454  -15.0633   25.7263 C   0  0  0  0  0  0  0  0  0  0  0  0
   -9.2627  -13.7281   25.5710 N   0  0  0  0  0  0  0  0  0  0  0  0
   -9.0776  -13.1357   26.7834 C   0  0  0  0  0  0  0  0  0  0  0  0
   -8.6212  -13.9729   27.6837 N   0  0  0  0  0  0  0  0  0  0  0  0
   -9.1513  -25.1995   29.1973 H   0  0  0  0  0  0  0  0  0  0  0  0
  -10.7321  -25.8670   28.7411 H   0  0  0  0  0  0  0  0  0  0  0  0
  -10.6038  -24.6329   30.0034 H   0  0  0  0  0  0  0  0  0  0  0  0
  -11.4556  -23.6421   27.9656 H   0  0  0  0  0  0  0  0  0  0  0  0
  -10.1138  -24.2483   27.0051 H   0  0  0  0  0  0  0  0  0  0  0  0
   -9.4129  -18.8241   27.8635 H   0  0  0  0  0  0  0  0  0  0  0  0
  -12.1632  -21.9218   29.3109 H   0  0  0  0  0  0  0  0  0  0  0  0
  -12.5666  -22.4781   31.8471 H   0  0  0  0  0  0  0  0  0  0  0  0
   -9.6393  -18.6209   33.2730 H   0  0  0  0  0  0  0  0  0  0  0  0
   -8.4784  -19.8525   33.3331 H   0  0  0  0  0  0  0  0  0  0  0  0
   -6.7431  -18.5598   30.7691 H   0  0  0  0  0  0  0  0  0  0  0  0
   -6.8854  -17.6115   31.8282 H   0  0  0  0  0  0  0  0  0  0  0  0
   -9.1278  -15.7668   24.9109 H   0  0  0  0  0  0  0  0  0  0  0  0
   -9.5578  -13.2570   24.7276 H   0  0  0  0  0  0  0  0  0  0  0  0
   -9.2873  -12.0884   26.9349 H   0  0  0  0  0  0  0  0  0  0  0  0
  1  2  1  0
  2  3  1  0
  3  4  1  0
  4  5  2  0
  4  6  1  0
  6  7  1  0
  7  8  1  0
  8  9  2  0
  9 10  1  0
 10 11  1  0
 11 12  1  0
 12 13  1  0
 13 14  1  0
 14 15  1  0
 15 16  2  0
 15 17  2  0
 15 18  1  0
 18 19  2  0
 19 20  1  0
 20 21  1  0
 21 22  2  0
 14  6  1  0
 22 18  1  0
 11  7  2  0
  1 23  1  0
  1 24  1  0
  1 25  1  0
  2 26  1  0
  2 27  1  0
  6 28  1  0
  8 29  1  0
  9 30  1  0
 12 31  1  0
 12 32  1  0
 13 33  1  0
 13 34  1  0
 19 35  1  0
 20 36  1  0
 21 37  1  0
M  END
>  <Energy>  (225) 
861.78437862167345

>  <compound_id>  (225) 
60632

>  <target_id>  (225) 
1

>  <reference_id>  (225) 
123

>  <inspiration_ids>  (225) 
[123, 116]

>  <energy_score>  (225) 
741.7280320142738

>  <distance_score>  (225) 
5.936956570442946

>  <path>  (225) 
/opt/xchem-fragalysis-2/maxwin/BulkDock/SCRATCH/511021/C60632-P123/C60632-P123.minimised.mol

>  <scratch_subdir>  (225) 
/opt/xchem-fragalysis-2/maxwin/BulkDock/SCRATCH/511021/C60632-P123

>  <fragmenstein_runtime>  (225) 
22.024542331695557

>  <fragmenstein_outcome>  (225) 
too moved

>  <fragmenstein_mode>  (225) 
expansion

>  <fragmenstein_error>  (225) 


$$$$
C60632-P116
     RDKit          3D

 37 39  0  0  0  0  0  0  0  0999 V2000
  -11.4805  -22.6621   27.8421 C   0  0  0  0  0  0  0  0  0  0  0  0
  -11.9272  -21.8313   29.0134 C   0  0  0  0  0  0  0  0  0  0  0  0
  -10.8763  -21.2371   29.8103 O   0  0  0  0  0  0  0  0  0  0  0  0
  -11.2560  -20.9662   31.0670 C   0  0  0  0  0  0  0  0  0  0  0  0
  -12.4726  -21.1176   31.1803 O   0  0  0  0  0  0  0  0  0  0  0  0
  -10.2460  -20.3633   32.6544 C   0  0  0  0  0  0  0  0  0  0  0  0
   -9.3184  -21.8568   32.5650 C   0  0  0  0  0  0  0  0  0  0  0  0
   -9.9333  -23.4804   32.5571 C   0  0  0  0  0  0  0  0  0  0  0  0
   -8.8895  -24.2469   32.9082 C   0  0  0  0  0  0  0  0  0  0  0  0
   -7.7718  -23.4584   33.7829 O   0  0  0  0  0  0  0  0  0  0  0  0
   -8.0983  -21.9518   33.8428 C   0  0  0  0  0  0  0  0  0  0  0  0
   -8.0384  -21.1891   35.1466 C   0  0  0  0  0  0  0  0  0  0  0  0
   -9.0481  -19.9952   35.2352 C   0  0  0  0  0  0  0  0  0  0  0  0
   -9.2667  -19.3275   33.9037 N   0  0  0  0  0  0  0  0  0  0  0  0
   -7.5048  -18.7782   33.7096 S   0  0  0  0  0  0  0  0  0  0  0  0
   -6.5508  -19.8593   33.5764 O   0  0  0  0  0  0  0  0  0  0  0  0
   -7.3244  -17.8836   34.8542 O   0  0  0  0  0  0  0  0  0  0  0  0
   -7.0237  -17.7965   32.4515 C   0  0  0  0  0  0  0  0  0  0  0  0
   -6.1543  -16.7865   32.6608 C   0  0  0  0  0  0  0  0  0  0  0  0
   -5.9969  -16.0964   31.3112 N   0  0  0  0  0  0  0  0  0  0  0  0
   -6.1116  -16.9502   30.2877 C   0  0  0  0  0  0  0  0  0  0  0  0
   -6.9672  -18.0330   31.0081 N   0  0  0  0  0  0  0  0  0  0  0  0
  -11.4714  -22.0178   26.9694 H   0  0  0  0  0  0  0  0  0  0  0  0
  -12.2029  -23.4421   27.5939 H   0  0  0  0  0  0  0  0  0  0  0  0
  -10.5119  -23.1324   28.0040 H   0  0  0  0  0  0  0  0  0  0  0  0
  -12.4940  -22.4852   29.6511 H   0  0  0  0  0  0  0  0  0  0  0  0
  -12.6079  -21.0482   28.6936 H   0  0  0  0  0  0  0  0  0  0  0  0
  -10.4588  -19.4128   32.3323 H   0  0  0  0  0  0  0  0  0  0  0  0
  -10.8597  -23.7383   32.0689 H   0  0  0  0  0  0  0  0  0  0  0  0
   -8.6616  -25.2278   32.5809 H   0  0  0  0  0  0  0  0  0  0  0  0
   -8.3472  -21.8473   35.9267 H   0  0  0  0  0  0  0  0  0  0  0  0
   -7.0189  -20.9244   35.4412 H   0  0  0  0  0  0  0  0  0  0  0  0
   -8.6402  -19.2897   35.9719 H   0  0  0  0  0  0  0  0  0  0  0  0
  -10.0072  -20.1383   35.7313 H   0  0  0  0  0  0  0  0  0  0  0  0
   -5.6150  -16.4900   33.5590 H   0  0  0  0  0  0  0  0  0  0  0  0
   -6.2511  -15.1418   31.0724 H   0  0  0  0  0  0  0  0  0  0  0  0
   -5.9296  -16.8034   29.2817 H   0  0  0  0  0  0  0  0  0  0  0  0
  1  2  1  0
  2  3  1  0
  3  4  1  0
  4  5  2  0
  4  6  1  0
  6  7  1  0
  7  8  1  0
  8  9  2  0
  9 10  1  0
 10 11  1  0
 11 12  1  0
 12 13  1  0
 13 14  1  0
 14 15  1  0
 15 16  2  0
 15 17  2  0
 15 18  1  0
 18 19  2  0
 19 20  1  0
 20 21  1  0
 21 22  2  0
 14  6  1  0
 22 18  1  0
 11  7  2  0
  1 23  1  0
  1 24  1  0
  1 25  1  0
  2 26  1  0
  2 27  1  0
  6 28  1  0
  8 29  1  0
  9 30  1  0
 12 31  1  0
 12 32  1  0
 13 33  1  0
 13 34  1  0
 19 35  1  0
 20 36  1  0
 21 37  1  0
M  END
>  <Energy>  (226) 
516.46823661933695

>  <compound_id>  (226) 
60632

>  <target_id>  (226) 
1

>  <reference_id>  (226) 
116

>  <inspiration_ids>  (226) 
[123, 116]

>  <energy_score>  (226) 
396.41189001194357

>  <distance_score>  (226) 
5.537959464825527

>  <path>  (226) 
/opt/xchem-fragalysis-2/maxwin/BulkDock/SCRATCH/511021/C60632-P116/C60632-P116.minimised.mol

>  <scratch_subdir>  (226) 
/opt/xchem-fragalysis-2/maxwin/BulkDock/SCRATCH/511021/C60632-P116

>  <fragmenstein_runtime>  (226) 
14.481607437133789

>  <fragmenstein_outcome>  (226) 
too moved

>  <fragmenstein_mode>  (226) 
expansion

>  <fragmenstein_error>  (226) 


$$$$
C60633-P123
     RDKit          3D

 40 42  0  0  0  0  0  0  0  0999 V2000
  -10.6789  -20.7221   32.1544 C   0  0  0  0  0  0  0  0  0  0  0  0
   -9.7000  -19.7122   33.1744 C   0  0  0  0  0  0  0  0  0  0  0  0
   -9.4330  -17.9988   33.8026 O   0  0  0  0  0  0  0  0  0  0  0  0
   -8.8077  -16.6764   33.8617 C   0  0  0  0  0  0  0  0  0  0  0  0
   -9.5604  -15.7969   34.3212 O   0  0  0  0  0  0  0  0  0  0  0  0
   -7.0309  -16.0710   33.4244 C   0  0  0  0  0  0  0  0  0  0  0  0
   -6.6580  -15.6976   34.8363 C   0  0  0  0  0  0  0  0  0  0  0  0
   -6.6992  -14.5829   35.6883 C   0  0  0  0  0  0  0  0  0  0  0  0
   -6.6030  -15.0783   36.9798 C   0  0  0  0  0  0  0  0  0  0  0  0
   -6.5691  -16.4388   36.9767 O   0  0  0  0  0  0  0  0  0  0  0  0
   -6.6087  -16.7479   35.6827 C   0  0  0  0  0  0  0  0  0  0  0  0
   -6.7799  -18.0771   35.1663 C   0  0  0  0  0  0  0  0  0  0  0  0
   -6.5388  -17.9643   33.5038 C   0  0  0  0  0  0  0  0  0  0  0  0
   -5.7203  -17.0164   32.5228 N   0  0  0  0  0  0  0  0  0  0  0  0
   -3.8825  -16.7084   32.3863 C   0  0  0  0  0  0  0  0  0  0  0  0
   -3.0794  -17.1617   33.1468 O   0  0  0  0  0  0  0  0  0  0  0  0
   -2.9111  -15.8072   30.8969 C   0  0  0  0  0  0  0  0  0  0  0  0
   -1.5539  -15.6080   31.3298 O   0  0  0  0  0  0  0  0  0  0  0  0
   -3.0735  -15.5558   29.3679 C   0  0  0  0  0  0  0  0  0  0  0  0
   -2.0327  -14.9515   28.6591 C   0  0  0  0  0  0  0  0  0  0  0  0
   -2.0141  -15.3980   27.3879 N   0  0  0  0  0  0  0  0  0  0  0  0
   -2.5965  -16.6396   27.3815 C   0  0  0  0  0  0  0  0  0  0  0  0
   -3.5464  -16.4043   28.3374 N   0  0  0  0  0  0  0  0  0  0  0  0
  -10.3546  -21.7633   32.1368 H   0  0  0  0  0  0  0  0  0  0  0  0
  -10.6671  -20.5130   31.0932 H   0  0  0  0  0  0  0  0  0  0  0  0
  -11.7138  -20.7725   32.5198 H   0  0  0  0  0  0  0  0  0  0  0  0
   -9.2594  -19.3672   32.3713 H   0  0  0  0  0  0  0  0  0  0  0  0
  -10.7266  -19.5480   33.5360 H   0  0  0  0  0  0  0  0  0  0  0  0
   -7.4919  -15.2797   32.8337 H   0  0  0  0  0  0  0  0  0  0  0  0
   -6.8749  -13.5470   35.4482 H   0  0  0  0  0  0  0  0  0  0  0  0
   -6.6047  -14.6159   37.9571 H   0  0  0  0  0  0  0  0  0  0  0  0
   -7.7787  -18.4632   35.3624 H   0  0  0  0  0  0  0  0  0  0  0  0
   -6.1481  -18.7442   35.7406 H   0  0  0  0  0  0  0  0  0  0  0  0
   -6.3118  -18.9733   33.1278 H   0  0  0  0  0  0  0  0  0  0  0  0
   -7.4846  -18.0227   33.0328 H   0  0  0  0  0  0  0  0  0  0  0  0
   -3.3813  -14.9472   30.3968 H   0  0  0  0  0  0  0  0  0  0  0  0
   -1.5133  -16.3810   31.8811 H   0  0  0  0  0  0  0  0  0  0  0  0
   -1.0647  -15.0953   29.1240 H   0  0  0  0  0  0  0  0  0  0  0  0
   -2.0608  -14.8259   26.5637 H   0  0  0  0  0  0  0  0  0  0  0  0
   -2.4738  -17.4188   26.6522 H   0  0  0  0  0  0  0  0  0  0  0  0
  1  2  1  0
  2  3  1  0
  3  4  1  0
  4  5  2  0
  4  6  1  0
  6  7  1  0
  7  8  1  0
  8  9  2  0
  9 10  1  0
 10 11  1  0
 11 12  1  0
 12 13  1  0
 13 14  1  0
 14 15  1  0
 15 16  2  0
 15 17  1  0
 17 18  1  0
 17 19  1  0
 19 20  2  0
 20 21  1  0
 21 22  1  0
 22 23  2  0
 14  6  1  0
 23 19  1  0
 11  7  2  0
  1 24  1  0
  1 25  1  0
  1 26  1  0
  2 27  1  0
  2 28  1  0
  6 29  1  0
  8 30  1  0
  9 31  1  0
 12 32  1  0
 12 33  1  0
 13 34  1  0
 13 35  1  0
 17 36  1  0
 18 37  1  0
 20 38  1  0
 21 39  1  0
 22 40  1  0
M  END
>  <Energy>  (227) 
830.15040370930308

>  <compound_id>  (227) 
60633

>  <target_id>  (227) 
1

>  <reference_id>  (227) 
123

>  <inspiration_ids>  (227) 
[123, 116]

>  <energy_score>  (227) 
638.6605784789109

>  <distance_score>  (227) 
7.670162518939485

>  <path>  (227) 
/opt/xchem-fragalysis-2/maxwin/BulkDock/SCRATCH/511021/C60633-P123/C60633-P123.minimised.mol

>  <scratch_subdir>  (227) 
/opt/xchem-fragalysis-2/maxwin/BulkDock/SCRATCH/511021/C60633-P123

>  <fragmenstein_runtime>  (227) 
18.801774501800537

>  <fragmenstein_outcome>  (227) 
too moved

>  <fragmenstein_mode>  (227) 
expansion

>  <fragmenstein_error>  (227) 


$$$$
C60633-P116
     RDKit          3D

 40 42  0  0  0  0  0  0  0  0999 V2000
  -11.0105  -25.6213   26.5013 C   0  0  0  0  0  0  0  0  0  0  0  0
  -10.0549  -24.5023   26.0834 C   0  0  0  0  0  0  0  0  0  0  0  0
   -9.0476  -24.0417   27.1001 O   0  0  0  0  0  0  0  0  0  0  0  0
   -8.0391  -23.0558   27.2757 C   0  0  0  0  0  0  0  0  0  0  0  0
   -7.2365  -22.8023   26.3910 O   0  0  0  0  0  0  0  0  0  0  0  0
   -7.9754  -22.0359   28.7467 C   0  0  0  0  0  0  0  0  0  0  0  0
   -9.8806  -22.5827   28.4072 C   0  0  0  0  0  0  0  0  0  0  0  0
  -11.1063  -22.0976   27.8461 C   0  0  0  0  0  0  0  0  0  0  0  0
  -11.8550  -22.0745   28.9582 C   0  0  0  0  0  0  0  0  0  0  0  0
  -11.1583  -22.8152   29.8215 O   0  0  0  0  0  0  0  0  0  0  0  0
  -10.2904  -23.9664   28.9454 C   0  0  0  0  0  0  0  0  0  0  0  0
   -8.7682  -24.8301   30.0218 C   0  0  0  0  0  0  0  0  0  0  0  0
   -7.4311  -23.6864   30.0161 C   0  0  0  0  0  0  0  0  0  0  0  0
   -7.8533  -21.7076   31.0903 N   0  0  0  0  0  0  0  0  0  0  0  0
   -6.8458  -20.6404   32.2411 C   0  0  0  0  0  0  0  0  0  0  0  0
   -5.7143  -21.0041   32.6986 O   0  0  0  0  0  0  0  0  0  0  0  0
   -7.3123  -19.1633   32.9768 C   0  0  0  0  0  0  0  0  0  0  0  0
   -6.4582  -19.1880   34.2080 O   0  0  0  0  0  0  0  0  0  0  0  0
   -6.9907  -17.9651   32.2612 C   0  0  0  0  0  0  0  0  0  0  0  0
   -6.3385  -16.8633   32.7002 C   0  0  0  0  0  0  0  0  0  0  0  0
   -6.0205  -16.1130   31.4247 N   0  0  0  0  0  0  0  0  0  0  0  0
   -6.0445  -16.8389   30.2766 C   0  0  0  0  0  0  0  0  0  0  0  0
   -6.8150  -17.9930   30.7929 N   0  0  0  0  0  0  0  0  0  0  0  0
  -12.0222  -25.2117   26.5986 H   0  0  0  0  0  0  0  0  0  0  0  0
  -10.7602  -26.1167   27.4353 H   0  0  0  0  0  0  0  0  0  0  0  0
  -11.0945  -26.3810   25.7200 H   0  0  0  0  0  0  0  0  0  0  0  0
   -9.4904  -24.7520   25.2137 H   0  0  0  0  0  0  0  0  0  0  0  0
  -10.7558  -23.7113   25.8417 H   0  0  0  0  0  0  0  0  0  0  0  0
   -7.8969  -21.1664   28.0013 H   0  0  0  0  0  0  0  0  0  0  0  0
  -11.3548  -21.4701   27.0209 H   0  0  0  0  0  0  0  0  0  0  0  0
  -12.7094  -21.5377   29.3321 H   0  0  0  0  0  0  0  0  0  0  0  0
   -9.1150  -24.8020   31.1187 H   0  0  0  0  0  0  0  0  0  0  0  0
   -8.5568  -25.9111   29.9426 H   0  0  0  0  0  0  0  0  0  0  0  0
   -6.9496  -23.4671   29.0273 H   0  0  0  0  0  0  0  0  0  0  0  0
   -6.5401  -24.4719   30.5166 H   0  0  0  0  0  0  0  0  0  0  0  0
   -8.2717  -19.1132   33.5023 H   0  0  0  0  0  0  0  0  0  0  0  0
   -5.7185  -19.7835   33.9523 H   0  0  0  0  0  0  0  0  0  0  0  0
   -6.0043  -16.5625   33.6884 H   0  0  0  0  0  0  0  0  0  0  0  0
   -6.3303  -15.1733   31.2048 H   0  0  0  0  0  0  0  0  0  0  0  0
   -5.6989  -16.5269   29.3468 H   0  0  0  0  0  0  0  0  0  0  0  0
  1  2  1  0
  2  3  1  0
  3  4  1  0
  4  5  2  0
  4  6  1  0
  6  7  1  0
  7  8  1  0
  8  9  2  0
  9 10  1  0
 10 11  1  0
 11 12  1  0
 12 13  1  0
 13 14  1  0
 14 15  1  0
 15 16  2  0
 15 17  1  0
 17 18  1  0
 17 19  1  0
 19 20  2  0
 20 21  1  0
 21 22  1  0
 22 23  2  0
 14  6  1  0
 23 19  1  0
 11  7  2  0
  1 24  1  0
  1 25  1  0
  1 26  1  0
  2 27  1  0
  2 28  1  0
  6 29  1  0
  8 30  1  0
  9 31  1  0
 12 32  1  0
 12 33  1  0
 13 34  1  0
 13 35  1  0
 17 36  1  0
 18 37  1  0
 20 38  1  0
 21 39  1  0
 22 40  1  0
M  END
>  <Energy>  (228) 
1439.2329730619267

>  <compound_id>  (228) 
60633

>  <target_id>  (228) 
1

>  <reference_id>  (228) 
116

>  <inspiration_ids>  (228) 
[123, 116]

>  <energy_score>  (228) 
1247.743147831542

>  <distance_score>  (228) 
6.220930862051753

>  <path>  (228) 
/opt/xchem-fragalysis-2/maxwin/BulkDock/SCRATCH/511021/C60633-P116/C60633-P116.minimised.mol

>  <scratch_subdir>  (228) 
/opt/xchem-fragalysis-2/maxwin/BulkDock/SCRATCH/511021/C60633-P116

>  <fragmenstein_runtime>  (228) 
23.624999284744263

>  <fragmenstein_outcome>  (228) 
too moved

>  <fragmenstein_mode>  (228) 
expansion

>  <fragmenstein_error>  (228) 


$$$$
C60634-P123
     RDKit          3D

 42 43  0  0  0  0  0  0  0  0999 V2000
  -10.9741  -26.4979   31.2530 C   0  0  0  0  0  0  0  0  0  0  0  0
  -11.1008  -25.2276   30.4545 C   0  0  0  0  0  0  0  0  0  0  0  0
  -11.3416  -25.6188   29.1000 O   0  0  0  0  0  0  0  0  0  0  0  0
  -11.6761  -24.6408   28.2107 C   0  0  0  0  0  0  0  0  0  0  0  0
  -12.5265  -24.8907   27.4011 O   0  0  0  0  0  0  0  0  0  0  0  0
  -10.8528  -23.4900   28.3626 N   0  0  0  0  0  0  0  0  0  0  0  0
  -10.8596  -22.2229   27.6569 C   0  0  0  0  0  0  0  0  0  0  0  0
   -9.6092  -21.2310   27.9574 C   0  0  0  0  0  0  0  0  0  0  0  0
   -7.5675  -20.9950   27.5565 C   0  0  0  0  0  0  0  0  0  0  0  0
   -5.9318  -19.9010   26.9177 N   0  0  0  0  0  0  0  0  0  0  0  0
   -4.4687  -18.6229   27.5739 C   0  0  0  0  0  0  0  0  0  0  0  0
   -2.6341  -19.1164   26.6764 C   0  0  0  0  0  0  0  0  0  0  0  0
   -1.6158  -20.0349   27.1334 O   0  0  0  0  0  0  0  0  0  0  0  0
   -3.1615  -17.0993   27.0701 C   0  0  0  0  0  0  0  0  0  0  0  0
   -2.7484  -16.9817   25.7101 N   0  0  0  0  0  0  0  0  0  0  0  0
   -2.7035  -15.7587   25.0992 C   0  0  0  0  0  0  0  0  0  0  0  0
   -2.2802  -14.8656   26.0398 C   0  0  0  0  0  0  0  0  0  0  0  0
   -2.2416  -15.7128   27.4153 N   0  0  0  0  0  0  0  0  0  0  0  0
   -7.8612  -22.7479   27.2896 C   0  0  0  0  0  0  0  0  0  0  0  0
   -9.5400  -23.6706   27.5750 C   0  0  0  0  0  0  0  0  0  0  0  0
  -10.0656  -27.0362   30.9673 H   0  0  0  0  0  0  0  0  0  0  0  0
  -11.8100  -27.1729   31.0574 H   0  0  0  0  0  0  0  0  0  0  0  0
  -10.9274  -26.2744   32.3207 H   0  0  0  0  0  0  0  0  0  0  0  0
  -11.9339  -24.6193   30.8212 H   0  0  0  0  0  0  0  0  0  0  0  0
  -10.1645  -24.6743   30.5374 H   0  0  0  0  0  0  0  0  0  0  0  0
  -11.7124  -21.7330   28.1570 H   0  0  0  0  0  0  0  0  0  0  0  0
  -11.3121  -22.3203   26.6638 H   0  0  0  0  0  0  0  0  0  0  0  0
  -10.0643  -20.7595   28.8828 H   0  0  0  0  0  0  0  0  0  0  0  0
   -9.3389  -22.0713   28.5754 H   0  0  0  0  0  0  0  0  0  0  0  0
   -6.7991  -21.5666   28.0245 H   0  0  0  0  0  0  0  0  0  0  0  0
   -5.3619  -20.7674   26.9941 H   0  0  0  0  0  0  0  0  0  0  0  0
   -5.2516  -17.9943   27.3762 H   0  0  0  0  0  0  0  0  0  0  0  0
   -2.7615  -19.4023   25.6536 H   0  0  0  0  0  0  0  0  0  0  0  0
   -1.8583  -18.3387   26.5975 H   0  0  0  0  0  0  0  0  0  0  0  0
   -0.8743  -19.6043   26.6716 H   0  0  0  0  0  0  0  0  0  0  0  0
   -2.8918  -15.5412   24.0732 H   0  0  0  0  0  0  0  0  0  0  0  0
   -2.1529  -13.8416   25.7702 H   0  0  0  0  0  0  0  0  0  0  0  0
   -2.3521  -15.1740   28.2609 H   0  0  0  0  0  0  0  0  0  0  0  0
   -7.0404  -23.2350   27.8038 H   0  0  0  0  0  0  0  0  0  0  0  0
   -7.5483  -23.0140   26.2808 H   0  0  0  0  0  0  0  0  0  0  0  0
   -9.2262  -24.4310   28.3105 H   0  0  0  0  0  0  0  0  0  0  0  0
   -9.7973  -24.1797   26.6352 H   0  0  0  0  0  0  0  0  0  0  0  0
  1  2  1  0
  2  3  1  0
  3  4  1  0
  4  5  2  0
  4  6  1  0
  6  7  1  0
  7  8  1  0
  8  9  1  0
  9 10  1  0
 10 11  1  0
 11 12  1  0
 12 13  1  0
 11 14  1  0
 14 15  2  0
 15 16  1  0
 16 17  2  0
 17 18  1  0
  9 19  1  0
 19 20  1  0
 20  6  1  0
 18 14  1  0
  1 21  1  0
  1 22  1  0
  1 23  1  0
  2 24  1  0
  2 25  1  0
  7 26  1  0
  7 27  1  0
  8 28  1  0
  8 29  1  0
  9 30  1  0
 10 31  1  0
 11 32  1  0
 12 33  1  0
 12 34  1  0
 13 35  1  0
 16 36  1  0
 17 37  1  0
 18 38  1  0
 19 39  1  0
 19 40  1  0
 20 41  1  0
 20 42  1  0
M  END
>  <Energy>  (229) 
1043.3037038425462

>  <compound_id>  (229) 
60634

>  <target_id>  (229) 
1

>  <reference_id>  (229) 
123

>  <inspiration_ids>  (229) 
[123, 116]

>  <energy_score>  (229) 
1014.9738522085246

>  <distance_score>  (229) 
5.026756868414151

>  <path>  (229) 
/opt/xchem-fragalysis-2/maxwin/BulkDock/SCRATCH/511021/C60634-P123/C60634-P123.minimised.mol

>  <scratch_subdir>  (229) 
/opt/xchem-fragalysis-2/maxwin/BulkDock/SCRATCH/511021/C60634-P123

>  <fragmenstein_runtime>  (229) 
36.264946937561035

>  <fragmenstein_outcome>  (229) 
too moved

>  <fragmenstein_mode>  (229) 
expansion

>  <fragmenstein_error>  (229) 


$$$$
C60634-P116
     RDKit          3D

 42 43  0  0  0  0  0  0  0  0999 V2000
  -12.4152  -21.8178   28.0799 C   0  0  0  0  0  0  0  0  0  0  0  0
  -12.2715  -20.8213   29.2525 C   0  0  0  0  0  0  0  0  0  0  0  0
  -11.0857  -20.8970   30.3595 O   0  0  0  0  0  0  0  0  0  0  0  0
  -11.4592  -21.9728   31.0522 C   0  0  0  0  0  0  0  0  0  0  0  0
  -12.5676  -22.2798   30.7294 O   0  0  0  0  0  0  0  0  0  0  0  0
  -10.4195  -23.0378   32.2578 N   0  0  0  0  0  0  0  0  0  0  0  0
  -10.6806  -24.1569   32.8025 C   0  0  0  0  0  0  0  0  0  0  0  0
  -11.0710  -23.9699   31.4653 C   0  0  0  0  0  0  0  0  0  0  0  0
  -10.4794  -23.8974   29.5315 C   0  0  0  0  0  0  0  0  0  0  0  0
  -10.2151  -22.5266   28.3039 N   0  0  0  0  0  0  0  0  0  0  0  0
   -9.4989  -20.8420   27.7022 C   0  0  0  0  0  0  0  0  0  0  0  0
   -7.9239  -21.9965   27.5329 C   0  0  0  0  0  0  0  0  0  0  0  0
   -6.5173  -21.9331   27.5803 O   0  0  0  0  0  0  0  0  0  0  0  0
   -9.2621  -18.7958   27.9481 C   0  0  0  0  0  0  0  0  0  0  0  0
   -9.8224  -17.7738   27.0669 N   0  0  0  0  0  0  0  0  0  0  0  0
   -9.2509  -16.5736   26.8850 C   0  0  0  0  0  0  0  0  0  0  0  0
   -8.2983  -16.7122   27.7985 C   0  0  0  0  0  0  0  0  0  0  0  0
   -8.2487  -18.0101   28.2976 N   0  0  0  0  0  0  0  0  0  0  0  0
   -8.7667  -24.7944   30.2477 C   0  0  0  0  0  0  0  0  0  0  0  0
   -9.2073  -24.4939   31.7879 C   0  0  0  0  0  0  0  0  0  0  0  0
  -11.9521  -21.5872   27.1296 H   0  0  0  0  0  0  0  0  0  0  0  0
  -13.3978  -21.8306   27.7269 H   0  0  0  0  0  0  0  0  0  0  0  0
  -12.3046  -22.8740   28.2990 H   0  0  0  0  0  0  0  0  0  0  0  0
  -12.4681  -19.7933   28.9965 H   0  0  0  0  0  0  0  0  0  0  0  0
  -13.2148  -20.8559   29.7897 H   0  0  0  0  0  0  0  0  0  0  0  0
  -10.5721  -25.2407   33.0445 H   0  0  0  0  0  0  0  0  0  0  0  0
   -9.8266  -23.8779   33.3668 H   0  0  0  0  0  0  0  0  0  0  0  0
  -12.0084  -23.5877   31.5371 H   0  0  0  0  0  0  0  0  0  0  0  0
  -11.5723  -24.7709   31.7608 H   0  0  0  0  0  0  0  0  0  0  0  0
  -10.8910  -22.9504   29.6485 H   0  0  0  0  0  0  0  0  0  0  0  0
  -10.3851  -23.0708   27.4483 H   0  0  0  0  0  0  0  0  0  0  0  0
  -10.3237  -20.8802   27.0059 H   0  0  0  0  0  0  0  0  0  0  0  0
   -7.9912  -22.7226   26.7265 H   0  0  0  0  0  0  0  0  0  0  0  0
   -8.0687  -22.7577   28.2803 H   0  0  0  0  0  0  0  0  0  0  0  0
   -6.1977  -21.0452   27.3880 H   0  0  0  0  0  0  0  0  0  0  0  0
   -9.6185  -15.7777   26.2559 H   0  0  0  0  0  0  0  0  0  0  0  0
   -7.6819  -15.9785   28.2176 H   0  0  0  0  0  0  0  0  0  0  0  0
   -7.4381  -18.4046   28.7362 H   0  0  0  0  0  0  0  0  0  0  0  0
   -8.5711  -25.8955   30.3825 H   0  0  0  0  0  0  0  0  0  0  0  0
   -8.9722  -25.0226   29.1908 H   0  0  0  0  0  0  0  0  0  0  0  0
   -8.4827  -24.4917   32.6626 H   0  0  0  0  0  0  0  0  0  0  0  0
   -9.3552  -25.5502   32.0661 H   0  0  0  0  0  0  0  0  0  0  0  0
  1  2  1  0
  2  3  1  0
  3  4  1  0
  4  5  2  0
  4  6  1  0
  6  7  1  0
  7  8  1  0
  8  9  1  0
  9 10  1  0
 10 11  1  0
 11 12  1  0
 12 13  1  0
 11 14  1  0
 14 15  2  0
 15 16  1  0
 16 17  2  0
 17 18  1  0
  9 19  1  0
 19 20  1  0
 20  6  1  0
 18 14  1  0
  1 21  1  0
  1 22  1  0
  1 23  1  0
  2 24  1  0
  2 25  1  0
  7 26  1  0
  7 27  1  0
  8 28  1  0
  8 29  1  0
  9 30  1  0
 10 31  1  0
 11 32  1  0
 12 33  1  0
 12 34  1  0
 13 35  1  0
 16 36  1  0
 17 37  1  0
 18 38  1  0
 19 39  1  0
 19 40  1  0
 20 41  1  0
 20 42  1  0
M  END
>  <Energy>  (230) 
1468.4233569114131

>  <compound_id>  (230) 
60634

>  <target_id>  (230) 
1

>  <reference_id>  (230) 
116

>  <inspiration_ids>  (230) 
[123, 116]

>  <energy_score>  (230) 
1440.0935052773705

>  <distance_score>  (230) 
6.01943523283172

>  <path>  (230) 
/opt/xchem-fragalysis-2/maxwin/BulkDock/SCRATCH/511021/C60634-P116/C60634-P116.minimised.mol

>  <scratch_subdir>  (230) 
/opt/xchem-fragalysis-2/maxwin/BulkDock/SCRATCH/511021/C60634-P116

>  <fragmenstein_runtime>  (230) 
30.050052165985107

>  <fragmenstein_outcome>  (230) 
too moved

>  <fragmenstein_mode>  (230) 
expansion

>  <fragmenstein_error>  (230) 


$$$$
C60635-P123
     RDKit          3D

 41 42  0  0  0  0  0  0  0  0999 V2000
  -11.9830  -23.6434   30.4438 C   0  0  0  0  0  0  0  0  0  0  0  0
  -12.0419  -23.6294   31.9672 C   0  0  0  0  0  0  0  0  0  0  0  0
  -13.0429  -22.6970   32.4360 O   0  0  0  0  0  0  0  0  0  0  0  0
  -12.8088  -21.4964   33.0387 C   0  0  0  0  0  0  0  0  0  0  0  0
  -13.6656  -20.9861   33.7593 O   0  0  0  0  0  0  0  0  0  0  0  0
  -11.5560  -20.7927   32.7564 C   0  0  0  0  0  0  0  0  0  0  0  0
  -11.0072  -19.6021   33.3585 C   0  0  0  0  0  0  0  0  0  0  0  0
   -9.5560  -19.5321   33.0894 C   0  0  0  0  0  0  0  0  0  0  0  0
   -7.9734  -18.8994   33.8773 C   0  0  0  0  0  0  0  0  0  0  0  0
   -6.6755  -17.4368   33.0235 S   0  0  0  0  0  0  0  0  0  0  0  0
   -6.7135  -17.7908   31.6486 O   0  0  0  0  0  0  0  0  0  0  0  0
   -7.3145  -16.2414   33.5360 O   0  0  0  0  0  0  0  0  0  0  0  0
   -5.1590  -16.7593   32.6820 N   0  0  0  0  0  0  0  0  0  0  0  0
   -3.2751  -16.3450   32.2234 C   0  0  0  0  0  0  0  0  0  0  0  0
   -2.4956  -15.1976   33.3341 C   0  0  0  0  0  0  0  0  0  0  0  0
   -3.1156  -15.5151   30.3441 C   0  0  0  0  0  0  0  0  0  0  0  0
   -3.9182  -13.7694   29.9406 C   0  0  0  0  0  0  0  0  0  0  0  0
   -5.3695  -13.3835   30.0804 C   0  0  0  0  0  0  0  0  0  0  0  0
   -5.2576  -12.0844   30.2767 N   0  0  0  0  0  0  0  0  0  0  0  0
   -3.9065  -11.8723   30.2441 C   0  0  0  0  0  0  0  0  0  0  0  0
   -3.1763  -12.7083   29.6312 N   0  0  0  0  0  0  0  0  0  0  0  0
   -9.4601  -20.6852   32.3465 O   0  0  0  0  0  0  0  0  0  0  0  0
  -10.6552  -21.1899   31.8695 N   0  0  0  0  0  0  0  0  0  0  0  0
  -12.9467  -23.9262   30.0141 H   0  0  0  0  0  0  0  0  0  0  0  0
  -11.7543  -22.6543   30.0381 H   0  0  0  0  0  0  0  0  0  0  0  0
  -11.2290  -24.3548   30.0954 H   0  0  0  0  0  0  0  0  0  0  0  0
  -12.3420  -24.6189   32.3211 H   0  0  0  0  0  0  0  0  0  0  0  0
  -11.0654  -23.4542   32.4246 H   0  0  0  0  0  0  0  0  0  0  0  0
  -11.5627  -19.0067   34.0837 H   0  0  0  0  0  0  0  0  0  0  0  0
   -8.2192  -18.4518   34.8437 H   0  0  0  0  0  0  0  0  0  0  0  0
   -7.3664  -19.7920   33.9382 H   0  0  0  0  0  0  0  0  0  0  0  0
   -5.5134  -16.5823   31.7278 H   0  0  0  0  0  0  0  0  0  0  0  0
   -3.8873  -15.7470   32.8083 H   0  0  0  0  0  0  0  0  0  0  0  0
   -3.1475  -14.4255   33.7718 H   0  0  0  0  0  0  0  0  0  0  0  0
   -2.3131  -15.5915   34.3200 H   0  0  0  0  0  0  0  0  0  0  0  0
   -1.6069  -14.7676   32.8823 H   0  0  0  0  0  0  0  0  0  0  0  0
   -3.6147  -16.1204   29.5900 H   0  0  0  0  0  0  0  0  0  0  0  0
   -2.0513  -15.3588   30.1410 H   0  0  0  0  0  0  0  0  0  0  0  0
   -6.2662  -13.9539   30.2403 H   0  0  0  0  0  0  0  0  0  0  0  0
   -5.9662  -11.5027   30.6924 H   0  0  0  0  0  0  0  0  0  0  0  0
   -3.3775  -11.1027   30.7945 H   0  0  0  0  0  0  0  0  0  0  0  0
  1  2  1  0
  2  3  1  0
  3  4  1  0
  4  5  2  0
  4  6  1  0
  6  7  1  0
  7  8  2  0
  8  9  1  0
  9 10  1  0
 10 11  2  0
 10 12  2  0
 10 13  1  0
 13 14  1  0
 14 15  1  0
 14 16  1  0
 16 17  1  0
 17 18  2  0
 18 19  1  0
 19 20  1  0
 20 21  2  0
  8 22  1  0
 22 23  1  0
 23  6  2  0
 21 17  1  0
  1 24  1  0
  1 25  1  0
  1 26  1  0
  2 27  1  0
  2 28  1  0
  7 29  1  0
  9 30  1  0
  9 31  1  0
 13 32  1  0
 14 33  1  0
 15 34  1  0
 15 35  1  0
 15 36  1  0
 16 37  1  0
 16 38  1  0
 18 39  1  0
 19 40  1  0
 20 41  1  0
M  END
>  <Energy>  (231) 
521.81388546204187

>  <compound_id>  (231) 
60635

>  <target_id>  (231) 
1

>  <reference_id>  (231) 
123

>  <inspiration_ids>  (231) 
[123, 116]

>  <energy_score>  (231) 
482.9204499866904

>  <distance_score>  (231) 
4.19874091770882

>  <path>  (231) 
/opt/xchem-fragalysis-2/maxwin/BulkDock/SCRATCH/511021/C60635-P123/C60635-P123.minimised.mol

>  <scratch_subdir>  (231) 
/opt/xchem-fragalysis-2/maxwin/BulkDock/SCRATCH/511021/C60635-P123

>  <fragmenstein_runtime>  (231) 
29.610975980758667

>  <fragmenstein_outcome>  (231) 
too moved

>  <fragmenstein_mode>  (231) 
expansion

>  <fragmenstein_error>  (231) 


$$$$
C60635-P116
     RDKit          3D

 41 42  0  0  0  0  0  0  0  0999 V2000
  -11.4868  -25.5056   26.5517 C   0  0  0  0  0  0  0  0  0  0  0  0
  -10.8775  -24.2094   27.0623 C   0  0  0  0  0  0  0  0  0  0  0  0
  -10.3953  -24.3640   28.3963 O   0  0  0  0  0  0  0  0  0  0  0  0
  -10.7553  -23.4589   29.3830 C   0  0  0  0  0  0  0  0  0  0  0  0
  -11.2940  -22.3701   29.1827 O   0  0  0  0  0  0  0  0  0  0  0  0
  -10.3857  -24.1052   31.1437 C   0  0  0  0  0  0  0  0  0  0  0  0
   -9.1452  -25.0637   31.7621 C   0  0  0  0  0  0  0  0  0  0  0  0
   -8.7810  -24.3314   32.8789 C   0  0  0  0  0  0  0  0  0  0  0  0
   -7.2689  -23.6254   33.8288 C   0  0  0  0  0  0  0  0  0  0  0  0
   -6.6295  -21.9489   34.7140 S   0  0  0  0  0  0  0  0  0  0  0  0
   -5.6175  -22.3803   35.6540 O   0  0  0  0  0  0  0  0  0  0  0  0
   -7.7402  -21.1487   35.2038 O   0  0  0  0  0  0  0  0  0  0  0  0
   -5.6593  -20.8590   33.7631 N   0  0  0  0  0  0  0  0  0  0  0  0
   -5.3229  -19.5058   34.5945 C   0  0  0  0  0  0  0  0  0  0  0  0
   -6.2451  -18.3628   34.2012 C   0  0  0  0  0  0  0  0  0  0  0  0
   -3.8119  -19.1092   34.7949 C   0  0  0  0  0  0  0  0  0  0  0  0
   -3.0156  -18.0435   34.0442 C   0  0  0  0  0  0  0  0  0  0  0  0
   -2.6814  -16.7559   34.3893 C   0  0  0  0  0  0  0  0  0  0  0  0
   -1.6395  -16.3258   33.6198 N   0  0  0  0  0  0  0  0  0  0  0  0
   -1.2500  -17.4135   32.9308 C   0  0  0  0  0  0  0  0  0  0  0  0
   -2.1376  -18.3860   33.0562 N   0  0  0  0  0  0  0  0  0  0  0  0
   -9.8785  -23.6558   33.0175 O   0  0  0  0  0  0  0  0  0  0  0  0
  -10.8978  -23.5787   32.1874 N   0  0  0  0  0  0  0  0  0  0  0  0
  -11.2306  -26.3695   27.1715 H   0  0  0  0  0  0  0  0  0  0  0  0
  -12.5755  -25.4227   26.4801 H   0  0  0  0  0  0  0  0  0  0  0  0
  -11.1321  -25.7209   25.5475 H   0  0  0  0  0  0  0  0  0  0  0  0
   -9.9857  -24.0644   26.4672 H   0  0  0  0  0  0  0  0  0  0  0  0
  -11.5637  -23.3661   26.9457 H   0  0  0  0  0  0  0  0  0  0  0  0
   -8.5321  -25.6720   31.1043 H   0  0  0  0  0  0  0  0  0  0  0  0
   -6.4584  -23.6810   33.0970 H   0  0  0  0  0  0  0  0  0  0  0  0
   -8.0446  -22.8779   33.9689 H   0  0  0  0  0  0  0  0  0  0  0  0
   -4.7450  -21.3064   33.5841 H   0  0  0  0  0  0  0  0  0  0  0  0
   -5.6269  -19.7688   35.6189 H   0  0  0  0  0  0  0  0  0  0  0  0
   -7.2381  -18.7215   33.9160 H   0  0  0  0  0  0  0  0  0  0  0  0
   -6.3694  -17.6766   35.0464 H   0  0  0  0  0  0  0  0  0  0  0  0
   -5.8510  -17.7650   33.3831 H   0  0  0  0  0  0  0  0  0  0  0  0
   -3.2191  -20.0237   34.7837 H   0  0  0  0  0  0  0  0  0  0  0  0
   -3.7499  -18.7774   35.8444 H   0  0  0  0  0  0  0  0  0  0  0  0
   -2.9519  -16.1252   35.1814 H   0  0  0  0  0  0  0  0  0  0  0  0
   -1.1601  -15.4377   33.6878 H   0  0  0  0  0  0  0  0  0  0  0  0
   -0.3690  -17.4312   32.3023 H   0  0  0  0  0  0  0  0  0  0  0  0
  1  2  1  0
  2  3  1  0
  3  4  1  0
  4  5  2  0
  4  6  1  0
  6  7  1  0
  7  8  2  0
  8  9  1  0
  9 10  1  0
 10 11  2  0
 10 12  2  0
 10 13  1  0
 13 14  1  0
 14 15  1  0
 14 16  1  0
 16 17  1  0
 17 18  2  0
 18 19  1  0
 19 20  1  0
 20 21  2  0
  8 22  1  0
 22 23  1  0
 23  6  2  0
 21 17  1  0
  1 24  1  0
  1 25  1  0
  1 26  1  0
  2 27  1  0
  2 28  1  0
  7 29  1  0
  9 30  1  0
  9 31  1  0
 13 32  1  0
 14 33  1  0
 15 34  1  0
 15 35  1  0
 15 36  1  0
 16 37  1  0
 16 38  1  0
 18 39  1  0
 19 40  1  0
 20 41  1  0
M  END
>  <Energy>  (232) 
274.84163342587294

>  <compound_id>  (232) 
60635

>  <target_id>  (232) 
1

>  <reference_id>  (232) 
116

>  <inspiration_ids>  (232) 
[123, 116]

>  <energy_score>  (232) 
235.94819795053104

>  <distance_score>  (232) 
4.824466607058727

>  <path>  (232) 
/opt/xchem-fragalysis-2/maxwin/BulkDock/SCRATCH/511021/C60635-P116/C60635-P116.minimised.mol

>  <scratch_subdir>  (232) 
/opt/xchem-fragalysis-2/maxwin/BulkDock/SCRATCH/511021/C60635-P116

>  <fragmenstein_runtime>  (232) 
14.70881724357605

>  <fragmenstein_outcome>  (232) 
too moved

>  <fragmenstein_mode>  (232) 
expansion

>  <fragmenstein_error>  (232) 


$$$$
C60636-P123
     RDKit          3D

 47 49  0  0  0  0  0  0  0  0999 V2000
  -12.3918  -27.5244   27.2362 C   0  0  0  0  0  0  0  0  0  0  0  0
  -12.7101  -26.1930   26.6101 C   0  0  0  0  0  0  0  0  0  0  0  0
  -11.7628  -25.2040   27.0306 O   0  0  0  0  0  0  0  0  0  0  0  0
  -12.1521  -24.5493   28.1619 C   0  0  0  0  0  0  0  0  0  0  0  0
  -12.9148  -25.0436   28.9774 O   0  0  0  0  0  0  0  0  0  0  0  0
  -11.6495  -23.1012   28.2765 C   0  0  0  0  0  0  0  0  0  0  0  0
  -11.7728  -22.6452   26.9405 C   0  0  0  0  0  0  0  0  0  0  0  0
  -11.4118  -21.3024   27.4829 C   0  0  0  0  0  0  0  0  0  0  0  0
   -9.7206  -20.6892   27.4703 N   0  0  0  0  0  0  0  0  0  0  0  0
   -9.0037  -18.8393   27.8660 C   0  0  0  0  0  0  0  0  0  0  0  0
   -8.6405  -18.3813   28.8594 O   0  0  0  0  0  0  0  0  0  0  0  0
   -9.0297  -17.4087   26.4683 C   0  0  0  0  0  0  0  0  0  0  0  0
  -10.2442  -16.8062   26.8743 O   0  0  0  0  0  0  0  0  0  0  0  0
   -8.4647  -15.9882   26.0331 C   0  0  0  0  0  0  0  0  0  0  0  0
   -8.4630  -15.5501   24.6928 C   0  0  0  0  0  0  0  0  0  0  0  0
   -8.2950  -14.1977   24.7018 N   0  0  0  0  0  0  0  0  0  0  0  0
   -8.3833  -13.8066   25.9957 C   0  0  0  0  0  0  0  0  0  0  0  0
   -8.6048  -14.8278   26.7909 N   0  0  0  0  0  0  0  0  0  0  0  0
  -10.1170  -22.1410   28.6466 C   0  0  0  0  0  0  0  0  0  0  0  0
  -10.8837  -21.7769   30.1483 C   0  0  0  0  0  0  0  0  0  0  0  0
  -11.2976  -23.0206   31.0284 C   0  0  0  0  0  0  0  0  0  0  0  0
  -10.4392  -24.6644   30.9308 S   0  0  0  0  0  0  0  0  0  0  0  0
   -9.5867  -24.7164   29.2752 C   0  0  0  0  0  0  0  0  0  0  0  0
   -9.3819  -23.4584   28.3047 C   0  0  0  0  0  0  0  0  0  0  0  0
  -13.1948  -28.2437   27.0556 H   0  0  0  0  0  0  0  0  0  0  0  0
  -11.4774  -27.9048   26.7804 H   0  0  0  0  0  0  0  0  0  0  0  0
  -12.2205  -27.4521   28.3137 H   0  0  0  0  0  0  0  0  0  0  0  0
  -13.7374  -25.8802   26.8360 H   0  0  0  0  0  0  0  0  0  0  0  0
  -12.6405  -26.2673   25.5203 H   0  0  0  0  0  0  0  0  0  0  0  0
  -12.4990  -22.6836   28.8464 H   0  0  0  0  0  0  0  0  0  0  0  0
  -12.7841  -22.8194   26.5869 H   0  0  0  0  0  0  0  0  0  0  0  0
  -11.1408  -23.1383   26.2131 H   0  0  0  0  0  0  0  0  0  0  0  0
  -11.7109  -20.9445   26.5016 H   0  0  0  0  0  0  0  0  0  0  0  0
  -12.0845  -20.8732   28.2429 H   0  0  0  0  0  0  0  0  0  0  0  0
   -9.3470  -17.5405   25.4325 H   0  0  0  0  0  0  0  0  0  0  0  0
  -10.1480  -15.8332   26.9540 H   0  0  0  0  0  0  0  0  0  0  0  0
   -8.5915  -16.0977   23.7682 H   0  0  0  0  0  0  0  0  0  0  0  0
   -8.2317  -13.5811   23.9033 H   0  0  0  0  0  0  0  0  0  0  0  0
   -8.3121  -12.7709   26.2755 H   0  0  0  0  0  0  0  0  0  0  0  0
  -10.3083  -21.1049   30.7733 H   0  0  0  0  0  0  0  0  0  0  0  0
  -11.7964  -21.1987   30.0196 H   0  0  0  0  0  0  0  0  0  0  0  0
  -11.2246  -22.7147   32.0780 H   0  0  0  0  0  0  0  0  0  0  0  0
  -12.3646  -23.2257   30.8910 H   0  0  0  0  0  0  0  0  0  0  0  0
   -8.6159  -25.1474   29.5006 H   0  0  0  0  0  0  0  0  0  0  0  0
  -10.0381  -25.5421   28.7183 H   0  0  0  0  0  0  0  0  0  0  0  0
   -9.6439  -23.8318   27.3125 H   0  0  0  0  0  0  0  0  0  0  0  0
   -8.3621  -23.1179   28.1398 H   0  0  0  0  0  0  0  0  0  0  0  0
  1  2  1  0
  2  3  1  0
  3  4  1  0
  4  5  2  0
  4  6  1  0
  6  7  1  0
  7  8  1  0
  8  9  1  0
  9 10  1  0
 10 11  2  0
 10 12  1  0
 12 13  1  0
 12 14  1  0
 14 15  2  0
 15 16  1  0
 16 17  1  0
 17 18  2  0
  9 19  1  0
 19 20  1  0
 20 21  1  0
 21 22  1  0
 22 23  1  0
 23 24  1  0
 19  6  1  0
 18 14  1  0
 24 19  1  0
  1 25  1  0
  1 26  1  0
  1 27  1  0
  2 28  1  0
  2 29  1  0
  6 30  1  0
  7 31  1  0
  7 32  1  0
  8 33  1  0
  8 34  1  0
 12 35  1  0
 13 36  1  0
 15 37  1  0
 16 38  1  0
 17 39  1  0
 20 40  1  0
 20 41  1  0
 21 42  1  0
 21 43  1  0
 23 44  1  0
 23 45  1  0
 24 46  1  0
 24 47  1  0
M  END
>  <Energy>  (233) 
711.31872180773235

>  <compound_id>  (233) 
60636

>  <target_id>  (233) 
1

>  <reference_id>  (233) 
123

>  <inspiration_ids>  (233) 
[123, 116]

>  <energy_score>  (233) 
588.1487437521693

>  <distance_score>  (233) 
6.400875637223108

>  <path>  (233) 
/opt/xchem-fragalysis-2/maxwin/BulkDock/SCRATCH/511021/C60636-P123/C60636-P123.minimised.mol

>  <scratch_subdir>  (233) 
/opt/xchem-fragalysis-2/maxwin/BulkDock/SCRATCH/511021/C60636-P123

>  <fragmenstein_runtime>  (233) 
31.38102674484253

>  <fragmenstein_outcome>  (233) 
too moved

>  <fragmenstein_mode>  (233) 
expansion

>  <fragmenstein_error>  (233) 


$$$$
C60636-P116
     RDKit          3D

 47 49  0  0  0  0  0  0  0  0999 V2000
  -11.4890  -25.8585   26.5168 C   0  0  0  0  0  0  0  0  0  0  0  0
  -10.8382  -24.5706   27.0031 C   0  0  0  0  0  0  0  0  0  0  0  0
  -10.3080  -24.7668   28.3312 O   0  0  0  0  0  0  0  0  0  0  0  0
  -10.5402  -23.7887   29.2699 C   0  0  0  0  0  0  0  0  0  0  0  0
  -11.0249  -22.7056   28.9225 O   0  0  0  0  0  0  0  0  0  0  0  0
   -9.8927  -24.2118   31.1976 C   0  0  0  0  0  0  0  0  0  0  0  0
   -8.9893  -25.1204   31.9832 C   0  0  0  0  0  0  0  0  0  0  0  0
   -8.1210  -24.2397   33.0741 C   0  0  0  0  0  0  0  0  0  0  0  0
   -8.5672  -23.0816   33.7358 N   0  0  0  0  0  0  0  0  0  0  0  0
   -7.3172  -21.8684   33.7263 C   0  0  0  0  0  0  0  0  0  0  0  0
   -7.0912  -20.9796   32.9260 O   0  0  0  0  0  0  0  0  0  0  0  0
   -6.3879  -21.8196   34.9879 C   0  0  0  0  0  0  0  0  0  0  0  0
   -5.5766  -22.9680   35.1807 O   0  0  0  0  0  0  0  0  0  0  0  0
   -5.5275  -20.4916   35.0046 C   0  0  0  0  0  0  0  0  0  0  0  0
   -4.2546  -20.2456   35.4964 C   0  0  0  0  0  0  0  0  0  0  0  0
   -3.9617  -18.9397   35.1875 N   0  0  0  0  0  0  0  0  0  0  0  0
   -5.0792  -18.3898   34.6418 C   0  0  0  0  0  0  0  0  0  0  0  0
   -6.0484  -19.2693   34.5866 N   0  0  0  0  0  0  0  0  0  0  0  0
  -10.1781  -23.3512   32.5140 C   0  0  0  0  0  0  0  0  0  0  0  0
  -11.6021  -22.2394   31.5868 C   0  0  0  0  0  0  0  0  0  0  0  0
  -13.2438  -21.2432   32.1476 C   0  0  0  0  0  0  0  0  0  0  0  0
  -14.9685  -22.6409   33.5926 S   0  0  0  0  0  0  0  0  0  0  0  0
  -13.5373  -24.7673   34.0876 C   0  0  0  0  0  0  0  0  0  0  0  0
  -11.4772  -24.6518   33.0813 C   0  0  0  0  0  0  0  0  0  0  0  0
  -12.5765  -25.7447   26.4603 H   0  0  0  0  0  0  0  0  0  0  0  0
  -11.1657  -26.0983   25.5083 H   0  0  0  0  0  0  0  0  0  0  0  0
  -11.2596  -26.7180   27.1539 H   0  0  0  0  0  0  0  0  0  0  0  0
  -11.5529  -23.7441   26.9406 H   0  0  0  0  0  0  0  0  0  0  0  0
   -9.9893  -24.3521   26.3594 H   0  0  0  0  0  0  0  0  0  0  0  0
  -10.8841  -24.0271   31.2308 H   0  0  0  0  0  0  0  0  0  0  0  0
   -8.3891  -25.6728   31.2457 H   0  0  0  0  0  0  0  0  0  0  0  0
   -9.4975  -25.8761   32.4810 H   0  0  0  0  0  0  0  0  0  0  0  0
   -7.6871  -24.3910   34.0067 H   0  0  0  0  0  0  0  0  0  0  0  0
   -6.9972  -24.1866   32.8549 H   0  0  0  0  0  0  0  0  0  0  0  0
   -7.0575  -21.6649   35.8379 H   0  0  0  0  0  0  0  0  0  0  0  0
   -6.1232  -23.5131   35.7860 H   0  0  0  0  0  0  0  0  0  0  0  0
   -3.5535  -20.8835   36.0123 H   0  0  0  0  0  0  0  0  0  0  0  0
   -3.1009  -18.4483   35.3843 H   0  0  0  0  0  0  0  0  0  0  0  0
   -5.1403  -17.3591   34.3201 H   0  0  0  0  0  0  0  0  0  0  0  0
  -11.0919  -21.4222   31.0319 H   0  0  0  0  0  0  0  0  0  0  0  0
  -12.0940  -22.6833   30.7593 H   0  0  0  0  0  0  0  0  0  0  0  0
  -12.8960  -20.3107   32.5560 H   0  0  0  0  0  0  0  0  0  0  0  0
  -13.6020  -21.2848   31.0250 H   0  0  0  0  0  0  0  0  0  0  0  0
  -14.0986  -25.6805   33.6796 H   0  0  0  0  0  0  0  0  0  0  0  0
  -13.4838  -25.0191   35.1977 H   0  0  0  0  0  0  0  0  0  0  0  0
  -10.9858  -25.6740   33.2218 H   0  0  0  0  0  0  0  0  0  0  0  0
  -11.5792  -24.8419   32.1155 H   0  0  0  0  0  0  0  0  0  0  0  0
  1  2  1  0
  2  3  1  0
  3  4  1  0
  4  5  2  0
  4  6  1  0
  6  7  1  0
  7  8  1  0
  8  9  1  0
  9 10  1  0
 10 11  2  0
 10 12  1  0
 12 13  1  0
 12 14  1  0
 14 15  2  0
 15 16  1  0
 16 17  1  0
 17 18  2  0
  9 19  1  0
 19 20  1  0
 20 21  1  0
 21 22  1  0
 22 23  1  0
 23 24  1  0
 19  6  1  0
 18 14  1  0
 24 19  1  0
  1 25  1  0
  1 26  1  0
  1 27  1  0
  2 28  1  0
  2 29  1  0
  6 30  1  0
  7 31  1  0
  7 32  1  0
  8 33  1  0
  8 34  1  0
 12 35  1  0
 13 36  1  0
 15 37  1  0
 16 38  1  0
 17 39  1  0
 20 40  1  0
 20 41  1  0
 21 42  1  0
 21 43  1  0
 23 44  1  0
 23 45  1  0
 24 46  1  0
 24 47  1  0
M  END
>  <Energy>  (234) 
1193.9266398267946

>  <compound_id>  (234) 
60636

>  <target_id>  (234) 
1

>  <reference_id>  (234) 
116

>  <inspiration_ids>  (234) 
[123, 116]

>  <energy_score>  (234) 
1070.7566617712428

>  <distance_score>  (234) 
6.766776137497014

>  <path>  (234) 
/opt/xchem-fragalysis-2/maxwin/BulkDock/SCRATCH/511021/C60636-P116/C60636-P116.minimised.mol

>  <scratch_subdir>  (234) 
/opt/xchem-fragalysis-2/maxwin/BulkDock/SCRATCH/511021/C60636-P116

>  <fragmenstein_runtime>  (234) 
24.726491451263428

>  <fragmenstein_outcome>  (234) 
too moved

>  <fragmenstein_mode>  (234) 
expansion

>  <fragmenstein_error>  (234) 


$$$$
C60633-P123
     RDKit          3D

 40 42  0  0  0  0  0  0  0  0999 V2000
  -10.6789  -20.7221   32.1544 C   0  0  0  0  0  0  0  0  0  0  0  0
   -9.7000  -19.7122   33.1744 C   0  0  0  0  0  0  0  0  0  0  0  0
   -9.4330  -17.9988   33.8026 O   0  0  0  0  0  0  0  0  0  0  0  0
   -8.8077  -16.6764   33.8617 C   0  0  0  0  0  0  0  0  0  0  0  0
   -9.5604  -15.7969   34.3212 O   0  0  0  0  0  0  0  0  0  0  0  0
   -7.0309  -16.0710   33.4244 C   0  0  0  0  0  0  0  0  0  0  0  0
   -6.6580  -15.6976   34.8363 C   0  0  0  0  0  0  0  0  0  0  0  0
   -6.6992  -14.5829   35.6883 C   0  0  0  0  0  0  0  0  0  0  0  0
   -6.6030  -15.0783   36.9798 C   0  0  0  0  0  0  0  0  0  0  0  0
   -6.5691  -16.4388   36.9767 O   0  0  0  0  0  0  0  0  0  0  0  0
   -6.6087  -16.7479   35.6827 C   0  0  0  0  0  0  0  0  0  0  0  0
   -6.7799  -18.0771   35.1663 C   0  0  0  0  0  0  0  0  0  0  0  0
   -6.5388  -17.9643   33.5038 C   0  0  0  0  0  0  0  0  0  0  0  0
   -5.7203  -17.0164   32.5228 N   0  0  0  0  0  0  0  0  0  0  0  0
   -3.8825  -16.7084   32.3863 C   0  0  0  0  0  0  0  0  0  0  0  0
   -3.0794  -17.1617   33.1468 O   0  0  0  0  0  0  0  0  0  0  0  0
   -2.9111  -15.8072   30.8969 C   0  0  0  0  0  0  0  0  0  0  0  0
   -1.5539  -15.6080   31.3298 O   0  0  0  0  0  0  0  0  0  0  0  0
   -3.0735  -15.5558   29.3679 C   0  0  0  0  0  0  0  0  0  0  0  0
   -2.0327  -14.9515   28.6591 C   0  0  0  0  0  0  0  0  0  0  0  0
   -2.0141  -15.3980   27.3879 N   0  0  0  0  0  0  0  0  0  0  0  0
   -2.5965  -16.6396   27.3815 C   0  0  0  0  0  0  0  0  0  0  0  0
   -3.5464  -16.4043   28.3374 N   0  0  0  0  0  0  0  0  0  0  0  0
  -10.3546  -21.7633   32.1368 H   0  0  0  0  0  0  0  0  0  0  0  0
  -10.6671  -20.5130   31.0932 H   0  0  0  0  0  0  0  0  0  0  0  0
  -11.7138  -20.7725   32.5198 H   0  0  0  0  0  0  0  0  0  0  0  0
   -9.2594  -19.3672   32.3713 H   0  0  0  0  0  0  0  0  0  0  0  0
  -10.7266  -19.5480   33.5360 H   0  0  0  0  0  0  0  0  0  0  0  0
   -7.4919  -15.2797   32.8337 H   0  0  0  0  0  0  0  0  0  0  0  0
   -6.8749  -13.5470   35.4482 H   0  0  0  0  0  0  0  0  0  0  0  0
   -6.6047  -14.6159   37.9571 H   0  0  0  0  0  0  0  0  0  0  0  0
   -7.7787  -18.4632   35.3624 H   0  0  0  0  0  0  0  0  0  0  0  0
   -6.1481  -18.7442   35.7406 H   0  0  0  0  0  0  0  0  0  0  0  0
   -6.3118  -18.9733   33.1278 H   0  0  0  0  0  0  0  0  0  0  0  0
   -7.4846  -18.0227   33.0328 H   0  0  0  0  0  0  0  0  0  0  0  0
   -3.3813  -14.9472   30.3968 H   0  0  0  0  0  0  0  0  0  0  0  0
   -1.5133  -16.3810   31.8811 H   0  0  0  0  0  0  0  0  0  0  0  0
   -1.0647  -15.0953   29.1240 H   0  0  0  0  0  0  0  0  0  0  0  0
   -2.0608  -14.8259   26.5637 H   0  0  0  0  0  0  0  0  0  0  0  0
   -2.4738  -17.4188   26.6522 H   0  0  0  0  0  0  0  0  0  0  0  0
  1  2  1  0
  2  3  1  0
  3  4  1  0
  4  5  2  0
  4  6  1  0
  6  7  1  0
  7  8  1  0
  8  9  2  0
  9 10  1  0
 10 11  1  0
 11 12  1  0
 12 13  1  0
 13 14  1  0
 14 15  1  0
 15 16  2  0
 15 17  1  0
 17 18  1  0
 17 19  1  0
 19 20  2  0
 20 21  1  0
 21 22  1  0
 22 23  2  0
 14  6  1  0
 23 19  1  0
 11  7  2  0
  1 24  1  0
  1 25  1  0
  1 26  1  0
  2 27  1  0
  2 28  1  0
  6 29  1  0
  8 30  1  0
  9 31  1  0
 12 32  1  0
 12 33  1  0
 13 34  1  0
 13 35  1  0
 17 36  1  0
 18 37  1  0
 20 38  1  0
 21 39  1  0
 22 40  1  0
M  END
>  <Energy>  (235) 
830.15040370930308

>  <compound_id>  (235) 
60633

>  <target_id>  (235) 
1

>  <reference_id>  (235) 
123

>  <inspiration_ids>  (235) 
[123, 116]

>  <energy_score>  (235) 
638.6605784789109

>  <distance_score>  (235) 
7.670162518939485

>  <path>  (235) 
/opt/xchem-fragalysis-2/maxwin/BulkDock/SCRATCH/511021/C60633-P123/C60633-P123.minimised.mol

>  <scratch_subdir>  (235) 
/opt/xchem-fragalysis-2/maxwin/BulkDock/SCRATCH/511021/C60633-P123

>  <fragmenstein_runtime>  (235) 
22.515990257263184

>  <fragmenstein_outcome>  (235) 
too moved

>  <fragmenstein_mode>  (235) 
expansion

>  <fragmenstein_error>  (235) 


$$$$
C60633-P116
     RDKit          3D

 40 42  0  0  0  0  0  0  0  0999 V2000
  -11.0105  -25.6213   26.5013 C   0  0  0  0  0  0  0  0  0  0  0  0
  -10.0549  -24.5023   26.0834 C   0  0  0  0  0  0  0  0  0  0  0  0
   -9.0476  -24.0417   27.1001 O   0  0  0  0  0  0  0  0  0  0  0  0
   -8.0391  -23.0558   27.2757 C   0  0  0  0  0  0  0  0  0  0  0  0
   -7.2365  -22.8023   26.3910 O   0  0  0  0  0  0  0  0  0  0  0  0
   -7.9754  -22.0359   28.7467 C   0  0  0  0  0  0  0  0  0  0  0  0
   -9.8806  -22.5827   28.4072 C   0  0  0  0  0  0  0  0  0  0  0  0
  -11.1063  -22.0976   27.8461 C   0  0  0  0  0  0  0  0  0  0  0  0
  -11.8550  -22.0745   28.9582 C   0  0  0  0  0  0  0  0  0  0  0  0
  -11.1583  -22.8152   29.8215 O   0  0  0  0  0  0  0  0  0  0  0  0
  -10.2904  -23.9664   28.9454 C   0  0  0  0  0  0  0  0  0  0  0  0
   -8.7682  -24.8301   30.0218 C   0  0  0  0  0  0  0  0  0  0  0  0
   -7.4311  -23.6864   30.0161 C   0  0  0  0  0  0  0  0  0  0  0  0
   -7.8533  -21.7076   31.0903 N   0  0  0  0  0  0  0  0  0  0  0  0
   -6.8458  -20.6404   32.2411 C   0  0  0  0  0  0  0  0  0  0  0  0
   -5.7143  -21.0041   32.6986 O   0  0  0  0  0  0  0  0  0  0  0  0
   -7.3123  -19.1633   32.9768 C   0  0  0  0  0  0  0  0  0  0  0  0
   -6.4582  -19.1880   34.2080 O   0  0  0  0  0  0  0  0  0  0  0  0
   -6.9907  -17.9651   32.2612 C   0  0  0  0  0  0  0  0  0  0  0  0
   -6.3385  -16.8633   32.7002 C   0  0  0  0  0  0  0  0  0  0  0  0
   -6.0205  -16.1130   31.4247 N   0  0  0  0  0  0  0  0  0  0  0  0
   -6.0445  -16.8389   30.2766 C   0  0  0  0  0  0  0  0  0  0  0  0
   -6.8150  -17.9930   30.7929 N   0  0  0  0  0  0  0  0  0  0  0  0
  -12.0222  -25.2117   26.5986 H   0  0  0  0  0  0  0  0  0  0  0  0
  -10.7602  -26.1167   27.4353 H   0  0  0  0  0  0  0  0  0  0  0  0
  -11.0945  -26.3810   25.7200 H   0  0  0  0  0  0  0  0  0  0  0  0
   -9.4904  -24.7520   25.2137 H   0  0  0  0  0  0  0  0  0  0  0  0
  -10.7558  -23.7113   25.8417 H   0  0  0  0  0  0  0  0  0  0  0  0
   -7.8969  -21.1664   28.0013 H   0  0  0  0  0  0  0  0  0  0  0  0
  -11.3548  -21.4701   27.0209 H   0  0  0  0  0  0  0  0  0  0  0  0
  -12.7094  -21.5377   29.3321 H   0  0  0  0  0  0  0  0  0  0  0  0
   -9.1150  -24.8020   31.1187 H   0  0  0  0  0  0  0  0  0  0  0  0
   -8.5568  -25.9111   29.9426 H   0  0  0  0  0  0  0  0  0  0  0  0
   -6.9496  -23.4671   29.0273 H   0  0  0  0  0  0  0  0  0  0  0  0
   -6.5401  -24.4719   30.5166 H   0  0  0  0  0  0  0  0  0  0  0  0
   -8.2717  -19.1132   33.5023 H   0  0  0  0  0  0  0  0  0  0  0  0
   -5.7185  -19.7835   33.9523 H   0  0  0  0  0  0  0  0  0  0  0  0
   -6.0043  -16.5625   33.6884 H   0  0  0  0  0  0  0  0  0  0  0  0
   -6.3303  -15.1733   31.2048 H   0  0  0  0  0  0  0  0  0  0  0  0
   -5.6989  -16.5269   29.3468 H   0  0  0  0  0  0  0  0  0  0  0  0
  1  2  1  0
  2  3  1  0
  3  4  1  0
  4  5  2  0
  4  6  1  0
  6  7  1  0
  7  8  1  0
  8  9  2  0
  9 10  1  0
 10 11  1  0
 11 12  1  0
 12 13  1  0
 13 14  1  0
 14 15  1  0
 15 16  2  0
 15 17  1  0
 17 18  1  0
 17 19  1  0
 19 20  2  0
 20 21  1  0
 21 22  1  0
 22 23  2  0
 14  6  1  0
 23 19  1  0
 11  7  2  0
  1 24  1  0
  1 25  1  0
  1 26  1  0
  2 27  1  0
  2 28  1  0
  6 29  1  0
  8 30  1  0
  9 31  1  0
 12 32  1  0
 12 33  1  0
 13 34  1  0
 13 35  1  0
 17 36  1  0
 18 37  1  0
 20 38  1  0
 21 39  1  0
 22 40  1  0
M  END
>  <Energy>  (236) 
1439.2329730619267

>  <compound_id>  (236) 
60633

>  <target_id>  (236) 
1

>  <reference_id>  (236) 
116

>  <inspiration_ids>  (236) 
[123, 116]

>  <energy_score>  (236) 
1247.743147831542

>  <distance_score>  (236) 
6.220930862051753

>  <path>  (236) 
/opt/xchem-fragalysis-2/maxwin/BulkDock/SCRATCH/511021/C60633-P116/C60633-P116.minimised.mol

>  <scratch_subdir>  (236) 
/opt/xchem-fragalysis-2/maxwin/BulkDock/SCRATCH/511021/C60633-P116

>  <fragmenstein_runtime>  (236) 
24.014917135238647

>  <fragmenstein_outcome>  (236) 
too moved

>  <fragmenstein_mode>  (236) 
expansion

>  <fragmenstein_error>  (236) 


$$$$
C60637-P123
     RDKit          3D

 37 38  0  0  0  0  0  0  0  0999 V2000
  -13.3031  -26.8905   27.0129 C   0  0  0  0  0  0  0  0  0  0  0  0
  -13.1027  -25.9297   25.8548 C   0  0  0  0  0  0  0  0  0  0  0  0
  -11.7371  -25.4886   25.7655 O   0  0  0  0  0  0  0  0  0  0  0  0
  -11.2304  -24.8259   26.8393 C   0  0  0  0  0  0  0  0  0  0  0  0
  -10.3352  -25.3191   27.5120 O   0  0  0  0  0  0  0  0  0  0  0  0
  -11.8892  -23.4814   27.1542 C   0  0  0  0  0  0  0  0  0  0  0  0
  -11.0971  -22.5524   28.6265 C   0  0  0  0  0  0  0  0  0  0  0  0
  -10.7926  -21.2680   28.5306 N   0  0  0  0  0  0  0  0  0  0  0  0
   -9.3330  -20.6092   27.8048 C   0  0  0  0  0  0  0  0  0  0  0  0
   -8.3064  -21.1802   27.3961 O   0  0  0  0  0  0  0  0  0  0  0  0
   -9.0659  -18.4929   27.7074 C   0  0  0  0  0  0  0  0  0  0  0  0
   -7.8368  -17.7788   27.8897 O   0  0  0  0  0  0  0  0  0  0  0  0
   -9.5219  -16.9640   26.6149 C   0  0  0  0  0  0  0  0  0  0  0  0
   -8.9768  -15.6432   26.6709 C   0  0  0  0  0  0  0  0  0  0  0  0
   -9.3123  -14.9031   25.5740 N   0  0  0  0  0  0  0  0  0  0  0  0
   -9.9996  -15.7191   24.7642 C   0  0  0  0  0  0  0  0  0  0  0  0
  -10.1213  -16.9072   25.3209 N   0  0  0  0  0  0  0  0  0  0  0  0
  -11.2836  -23.0772   29.1587 C   0  0  0  0  0  0  0  0  0  0  0  0
  -12.8805  -23.7232   29.1187 C   0  0  0  0  0  0  0  0  0  0  0  0
  -13.1726  -23.7945   27.7350 O   0  0  0  0  0  0  0  0  0  0  0  0
  -12.5722  -27.7033   26.9715 H   0  0  0  0  0  0  0  0  0  0  0  0
  -14.3101  -27.3169   26.9900 H   0  0  0  0  0  0  0  0  0  0  0  0
  -13.1617  -26.4033   27.9785 H   0  0  0  0  0  0  0  0  0  0  0  0
  -13.3154  -26.4717   24.9295 H   0  0  0  0  0  0  0  0  0  0  0  0
  -13.7935  -25.0829   25.8708 H   0  0  0  0  0  0  0  0  0  0  0  0
  -11.9546  -22.8249   26.2866 H   0  0  0  0  0  0  0  0  0  0  0  0
  -10.0712  -22.7568   27.9800 H   0  0  0  0  0  0  0  0  0  0  0  0
  -12.1013  -21.8498   28.2587 H   0  0  0  0  0  0  0  0  0  0  0  0
   -8.7594  -18.3575   28.6776 H   0  0  0  0  0  0  0  0  0  0  0  0
   -7.9228  -16.8589   28.1505 H   0  0  0  0  0  0  0  0  0  0  0  0
   -8.3778  -15.1184   27.3940 H   0  0  0  0  0  0  0  0  0  0  0  0
   -9.0499  -13.9452   25.3919 H   0  0  0  0  0  0  0  0  0  0  0  0
  -10.3671  -15.4415   23.7863 H   0  0  0  0  0  0  0  0  0  0  0  0
  -11.3420  -22.8368   30.3760 H   0  0  0  0  0  0  0  0  0  0  0  0
  -10.4695  -24.0159   29.3562 H   0  0  0  0  0  0  0  0  0  0  0  0
  -13.5640  -23.0697   29.6578 H   0  0  0  0  0  0  0  0  0  0  0  0
  -12.8424  -24.7193   29.5637 H   0  0  0  0  0  0  0  0  0  0  0  0
  1  2  1  0
  2  3  1  0
  3  4  1  0
  4  5  2  0
  4  6  1  0
  6  7  1  0
  7  8  1  0
  8  9  1  0
  9 10  2  0
  9 11  1  0
 11 12  1  0
 11 13  1  0
 13 14  2  0
 14 15  1  0
 15 16  1  0
 16 17  2  0
  8 18  1  0
 18 19  1  0
 19 20  1  0
 20  6  1  0
 17 13  1  0
  1 21  1  0
  1 22  1  0
  1 23  1  0
  2 24  1  0
  2 25  1  0
  6 26  1  0
  7 27  1  0
  7 28  1  0
 11 29  1  0
 12 30  1  0
 14 31  1  0
 15 32  1  0
 16 33  1  0
 18 34  1  0
 18 35  1  0
 19 36  1  0
 19 37  1  0
M  END
>  <Energy>  (237) 
1238.681344499171

>  <compound_id>  (237) 
60637

>  <target_id>  (237) 
1

>  <reference_id>  (237) 
123

>  <inspiration_ids>  (237) 
[123, 116]

>  <energy_score>  (237) 
1060.2864289742897

>  <distance_score>  (237) 
6.943243083987728

>  <path>  (237) 
/opt/xchem-fragalysis-2/maxwin/BulkDock/SCRATCH/511021/C60637-P123/C60637-P123.minimised.mol

>  <scratch_subdir>  (237) 
/opt/xchem-fragalysis-2/maxwin/BulkDock/SCRATCH/511021/C60637-P123

>  <fragmenstein_runtime>  (237) 
27.76142692565918

>  <fragmenstein_outcome>  (237) 
too moved

>  <fragmenstein_mode>  (237) 
expansion

>  <fragmenstein_error>  (237) 


$$$$
C60637-P116
     RDKit          3D

 37 38  0  0  0  0  0  0  0  0999 V2000
  -11.5769  -23.8617   26.6848 C   0  0  0  0  0  0  0  0  0  0  0  0
  -11.8984  -22.6030   27.4625 C   0  0  0  0  0  0  0  0  0  0  0  0
  -11.6381  -22.8495   28.8308 O   0  0  0  0  0  0  0  0  0  0  0  0
  -12.5386  -22.2866   29.7112 C   0  0  0  0  0  0  0  0  0  0  0  0
  -12.8820  -21.1147   29.6203 O   0  0  0  0  0  0  0  0  0  0  0  0
  -12.9778  -23.5171   31.0234 C   0  0  0  0  0  0  0  0  0  0  0  0
  -11.3293  -24.0420   32.3306 C   0  0  0  0  0  0  0  0  0  0  0  0
  -10.2386  -23.2539   32.7724 N   0  0  0  0  0  0  0  0  0  0  0  0
   -8.6341  -23.5366   33.2710 C   0  0  0  0  0  0  0  0  0  0  0  0
   -8.0709  -24.4708   33.4801 O   0  0  0  0  0  0  0  0  0  0  0  0
   -7.5113  -21.9614   33.7774 C   0  0  0  0  0  0  0  0  0  0  0  0
   -6.4522  -22.5776   34.5879 O   0  0  0  0  0  0  0  0  0  0  0  0
   -7.7722  -20.5691   34.3851 C   0  0  0  0  0  0  0  0  0  0  0  0
   -6.8370  -19.5276   34.2915 C   0  0  0  0  0  0  0  0  0  0  0  0
   -7.4763  -18.3969   34.6960 N   0  0  0  0  0  0  0  0  0  0  0  0
   -8.7064  -18.7826   35.1323 C   0  0  0  0  0  0  0  0  0  0  0  0
   -8.8818  -20.0837   35.0237 N   0  0  0  0  0  0  0  0  0  0  0  0
  -11.5202  -24.7120   32.7343 C   0  0  0  0  0  0  0  0  0  0  0  0
  -13.5939  -24.8977   33.8922 C   0  0  0  0  0  0  0  0  0  0  0  0
  -14.6442  -24.2319   32.1937 O   0  0  0  0  0  0  0  0  0  0  0  0
  -12.3518  -24.6176   26.8180 H   0  0  0  0  0  0  0  0  0  0  0  0
  -10.6239  -24.2987   26.9956 H   0  0  0  0  0  0  0  0  0  0  0  0
  -11.5490  -23.6435   25.6221 H   0  0  0  0  0  0  0  0  0  0  0  0
  -11.2976  -21.7621   27.1642 H   0  0  0  0  0  0  0  0  0  0  0  0
  -12.9237  -22.3327   27.2623 H   0  0  0  0  0  0  0  0  0  0  0  0
  -12.4761  -22.3678   31.2786 H   0  0  0  0  0  0  0  0  0  0  0  0
  -11.4003  -22.9103   32.1922 H   0  0  0  0  0  0  0  0  0  0  0  0
  -10.6259  -24.1375   31.3659 H   0  0  0  0  0  0  0  0  0  0  0  0
   -6.8576  -21.6144   32.9742 H   0  0  0  0  0  0  0  0  0  0  0  0
   -6.8987  -22.9164   35.3924 H   0  0  0  0  0  0  0  0  0  0  0  0
   -5.8351  -19.5110   33.8913 H   0  0  0  0  0  0  0  0  0  0  0  0
   -7.1281  -17.4485   34.6712 H   0  0  0  0  0  0  0  0  0  0  0  0
   -9.4320  -18.0754   35.5128 H   0  0  0  0  0  0  0  0  0  0  0  0
  -11.3869  -25.9957   33.0044 H   0  0  0  0  0  0  0  0  0  0  0  0
  -10.4578  -25.3352   33.1746 H   0  0  0  0  0  0  0  0  0  0  0  0
  -13.6730  -24.9855   35.0048 H   0  0  0  0  0  0  0  0  0  0  0  0
  -13.9641  -25.9545   33.7233 H   0  0  0  0  0  0  0  0  0  0  0  0
  1  2  1  0
  2  3  1  0
  3  4  1  0
  4  5  2  0
  4  6  1  0
  6  7  1  0
  7  8  1  0
  8  9  1  0
  9 10  2  0
  9 11  1  0
 11 12  1  0
 11 13  1  0
 13 14  2  0
 14 15  1  0
 15 16  1  0
 16 17  2  0
  8 18  1  0
 18 19  1  0
 19 20  1  0
 20  6  1  0
 17 13  1  0
  1 21  1  0
  1 22  1  0
  1 23  1  0
  2 24  1  0
  2 25  1  0
  6 26  1  0
  7 27  1  0
  7 28  1  0
 11 29  1  0
 12 30  1  0
 14 31  1  0
 15 32  1  0
 16 33  1  0
 18 34  1  0
 18 35  1  0
 19 36  1  0
 19 37  1  0
M  END
>  <Energy>  (238) 
1721.5488487085233

>  <compound_id>  (238) 
60637

>  <target_id>  (238) 
1

>  <reference_id>  (238) 
116

>  <inspiration_ids>  (238) 
[123, 116]

>  <energy_score>  (238) 
1543.1539331836325

>  <distance_score>  (238) 
7.111973727772869

>  <path>  (238) 
/opt/xchem-fragalysis-2/maxwin/BulkDock/SCRATCH/511021/C60637-P116/C60637-P116.minimised.mol

>  <scratch_subdir>  (238) 
/opt/xchem-fragalysis-2/maxwin/BulkDock/SCRATCH/511021/C60637-P116

>  <fragmenstein_runtime>  (238) 
23.308321237564087

>  <fragmenstein_outcome>  (238) 
too moved

>  <fragmenstein_mode>  (238) 
expansion

>  <fragmenstein_error>  (238) 


$$$$
C60638-P123
     RDKit          3D

 39 40  0  0  0  0  0  0  0  0999 V2000
  -12.6973  -21.3699   33.3695 C   0  0  0  0  0  0  0  0  0  0  0  0
  -13.4658  -20.5225   34.3836 C   0  0  0  0  0  0  0  0  0  0  0  0
  -12.7145  -19.3865   34.9033 O   0  0  0  0  0  0  0  0  0  0  0  0
  -13.3405  -18.1728   34.8833 C   0  0  0  0  0  0  0  0  0  0  0  0
  -14.4238  -17.9863   34.3318 O   0  0  0  0  0  0  0  0  0  0  0  0
  -12.6470  -17.0743   35.6993 C   0  0  0  0  0  0  0  0  0  0  0  0
  -11.1329  -16.9813   35.6860 C   0  0  0  0  0  0  0  0  0  0  0  0
  -10.7559  -15.5028   35.9719 C   0  0  0  0  0  0  0  0  0  0  0  0
  -10.6423  -14.3835   34.9802 N   0  0  0  0  0  0  0  0  0  0  0  0
   -9.7664  -14.2222   33.8321 C   0  0  0  0  0  0  0  0  0  0  0  0
   -8.9770  -14.9874   33.3370 O   0  0  0  0  0  0  0  0  0  0  0  0
  -10.0453  -12.8212   33.1351 C   0  0  0  0  0  0  0  0  0  0  0  0
  -10.4980  -11.7961   34.0240 O   0  0  0  0  0  0  0  0  0  0  0  0
   -8.8507  -12.3114   32.3356 C   0  0  0  0  0  0  0  0  0  0  0  0
   -8.3163  -12.7460   31.1393 C   0  0  0  0  0  0  0  0  0  0  0  0
   -7.2157  -11.9677   30.9130 N   0  0  0  0  0  0  0  0  0  0  0  0
   -7.2494  -10.9608   31.8322 C   0  0  0  0  0  0  0  0  0  0  0  0
   -8.1823  -11.1631   32.7357 N   0  0  0  0  0  0  0  0  0  0  0  0
  -12.0025  -14.9285   34.5287 C   0  0  0  0  0  0  0  0  0  0  0  0
  -13.1159  -15.6640   35.3260 C   0  0  0  0  0  0  0  0  0  0  0  0
  -12.2770  -22.2498   33.8645 H   0  0  0  0  0  0  0  0  0  0  0  0
  -13.3771  -21.7557   32.6031 H   0  0  0  0  0  0  0  0  0  0  0  0
  -11.8846  -20.8176   32.8954 H   0  0  0  0  0  0  0  0  0  0  0  0
  -13.7008  -21.1688   35.2248 H   0  0  0  0  0  0  0  0  0  0  0  0
  -14.4230  -20.2169   33.9488 H   0  0  0  0  0  0  0  0  0  0  0  0
  -12.9789  -17.2644   36.7302 H   0  0  0  0  0  0  0  0  0  0  0  0
  -10.7514  -17.5899   36.5082 H   0  0  0  0  0  0  0  0  0  0  0  0
  -10.6540  -17.3413   34.7793 H   0  0  0  0  0  0  0  0  0  0  0  0
   -9.7076  -15.5799   36.3022 H   0  0  0  0  0  0  0  0  0  0  0  0
  -11.2534  -15.1125   36.8755 H   0  0  0  0  0  0  0  0  0  0  0  0
  -10.8651  -13.0019   32.4286 H   0  0  0  0  0  0  0  0  0  0  0  0
   -9.6834  -11.2994   34.2385 H   0  0  0  0  0  0  0  0  0  0  0  0
   -8.5915  -13.5501   30.4794 H   0  0  0  0  0  0  0  0  0  0  0  0
   -6.5028  -12.1133   30.2056 H   0  0  0  0  0  0  0  0  0  0  0  0
   -6.5451  -10.1423   31.8352 H   0  0  0  0  0  0  0  0  0  0  0  0
  -11.8675  -15.4113   33.5594 H   0  0  0  0  0  0  0  0  0  0  0  0
  -12.4978  -13.9896   34.2299 H   0  0  0  0  0  0  0  0  0  0  0  0
  -13.3622  -15.0905   36.2296 H   0  0  0  0  0  0  0  0  0  0  0  0
  -14.0307  -15.6748   34.7237 H   0  0  0  0  0  0  0  0  0  0  0  0
  1  2  1  0
  2  3  1  0
  3  4  1  0
  4  5  2  0
  4  6  1  0
  6  7  1  0
  7  8  1  0
  8  9  1  0
  9 10  1  0
 10 11  2  0
 10 12  1  0
 12 13  1  0
 12 14  1  0
 14 15  2  0
 15 16  1  0
 16 17  1  0
 17 18  2  0
  9 19  1  0
 19 20  1  0
 20  6  1  0
 18 14  1  0
  1 21  1  0
  1 22  1  0
  1 23  1  0
  2 24  1  0
  2 25  1  0
  6 26  1  0
  7 27  1  0
  7 28  1  0
  8 29  1  0
  8 30  1  0
 12 31  1  0
 13 32  1  0
 15 33  1  0
 16 34  1  0
 17 35  1  0
 19 36  1  0
 19 37  1  0
 20 38  1  0
 20 39  1  0
M  END
>  <Energy>  (239) 
138.40949178997644

>  <compound_id>  (239) 
60638

>  <target_id>  (239) 
1

>  <reference_id>  (239) 
123

>  <inspiration_ids>  (239) 
[123, 116]

>  <energy_score>  (239) 
62.53106236875408

>  <distance_score>  (239) 
8.339301251957322

>  <path>  (239) 
/opt/xchem-fragalysis-2/maxwin/BulkDock/SCRATCH/511021/C60638-P123/C60638-P123.minimised.mol

>  <scratch_subdir>  (239) 
/opt/xchem-fragalysis-2/maxwin/BulkDock/SCRATCH/511021/C60638-P123

>  <fragmenstein_runtime>  (239) 
28.318325519561768

>  <fragmenstein_outcome>  (239) 
too moved

>  <fragmenstein_mode>  (239) 
expansion

>  <fragmenstein_error>  (239) 


$$$$
C60638-P116
     RDKit          3D

 39 40  0  0  0  0  0  0  0  0999 V2000
  -11.8986  -26.4209   26.2102 C   0  0  0  0  0  0  0  0  0  0  0  0
  -12.3840  -24.9921   26.3009 C   0  0  0  0  0  0  0  0  0  0  0  0
  -11.3339  -24.1500   26.7499 O   0  0  0  0  0  0  0  0  0  0  0  0
  -11.8349  -23.0146   27.3185 C   0  0  0  0  0  0  0  0  0  0  0  0
  -12.7293  -22.3986   26.7870 O   0  0  0  0  0  0  0  0  0  0  0  0
  -11.1295  -22.5799   28.5859 C   0  0  0  0  0  0  0  0  0  0  0  0
  -10.5967  -23.7745   29.2871 C   0  0  0  0  0  0  0  0  0  0  0  0
  -10.3980  -23.9094   31.3367 C   0  0  0  0  0  0  0  0  0  0  0  0
  -10.2607  -22.3220   32.5010 N   0  0  0  0  0  0  0  0  0  0  0  0
   -8.6493  -21.3911   33.2996 C   0  0  0  0  0  0  0  0  0  0  0  0
   -7.3908  -21.5688   33.1338 O   0  0  0  0  0  0  0  0  0  0  0  0
   -8.9315  -19.9619   34.3468 C   0  0  0  0  0  0  0  0  0  0  0  0
   -9.2846  -20.0431   35.7163 O   0  0  0  0  0  0  0  0  0  0  0  0
   -7.6644  -18.9948   34.2968 C   0  0  0  0  0  0  0  0  0  0  0  0
   -6.3043  -19.2330   34.2196 C   0  0  0  0  0  0  0  0  0  0  0  0
   -5.6900  -18.0149   34.3105 N   0  0  0  0  0  0  0  0  0  0  0  0
   -6.6609  -17.0937   34.5556 C   0  0  0  0  0  0  0  0  0  0  0  0
   -7.8579  -17.6323   34.5258 N   0  0  0  0  0  0  0  0  0  0  0  0
  -11.0001  -21.5942   30.9145 C   0  0  0  0  0  0  0  0  0  0  0  0
  -11.8547  -21.8545   29.6423 C   0  0  0  0  0  0  0  0  0  0  0  0
  -12.7171  -27.0959   25.9455 H   0  0  0  0  0  0  0  0  0  0  0  0
  -11.1057  -26.5169   25.4766 H   0  0  0  0  0  0  0  0  0  0  0  0
  -11.4658  -26.7618   27.1554 H   0  0  0  0  0  0  0  0  0  0  0  0
  -13.1910  -24.9684   27.0039 H   0  0  0  0  0  0  0  0  0  0  0  0
  -12.8797  -24.6119   25.4167 H   0  0  0  0  0  0  0  0  0  0  0  0
  -10.3506  -21.9529   28.2097 H   0  0  0  0  0  0  0  0  0  0  0  0
  -11.0295  -24.6293   28.7847 H   0  0  0  0  0  0  0  0  0  0  0  0
   -9.7514  -24.1795   28.6344 H   0  0  0  0  0  0  0  0  0  0  0  0
   -9.5696  -24.5318   31.7241 H   0  0  0  0  0  0  0  0  0  0  0  0
  -11.2937  -24.1288   31.8441 H   0  0  0  0  0  0  0  0  0  0  0  0
   -9.6760  -19.3324   33.8565 H   0  0  0  0  0  0  0  0  0  0  0  0
   -9.0196  -19.1797   36.0863 H   0  0  0  0  0  0  0  0  0  0  0  0
   -5.7345  -20.1458   34.1037 H   0  0  0  0  0  0  0  0  0  0  0  0
   -4.6937  -17.8473   34.2833 H   0  0  0  0  0  0  0  0  0  0  0  0
   -6.4397  -16.0598   34.7756 H   0  0  0  0  0  0  0  0  0  0  0  0
  -11.9526  -21.8674   31.3617 H   0  0  0  0  0  0  0  0  0  0  0  0
  -10.9662  -20.5707   31.1433 H   0  0  0  0  0  0  0  0  0  0  0  0
  -12.7848  -22.3442   29.8926 H   0  0  0  0  0  0  0  0  0  0  0  0
  -12.2201  -20.9091   29.2418 H   0  0  0  0  0  0  0  0  0  0  0  0
  1  2  1  0
  2  3  1  0
  3  4  1  0
  4  5  2  0
  4  6  1  0
  6  7  1  0
  7  8  1  0
  8  9  1  0
  9 10  1  0
 10 11  2  0
 10 12  1  0
 12 13  1  0
 12 14  1  0
 14 15  2  0
 15 16  1  0
 16 17  1  0
 17 18  2  0
  9 19  1  0
 19 20  1  0
 20  6  1  0
 18 14  1  0
  1 21  1  0
  1 22  1  0
  1 23  1  0
  2 24  1  0
  2 25  1  0
  6 26  1  0
  7 27  1  0
  7 28  1  0
  8 29  1  0
  8 30  1  0
 12 31  1  0
 13 32  1  0
 15 33  1  0
 16 34  1  0
 17 35  1  0
 19 36  1  0
 19 37  1  0
 20 38  1  0
 20 39  1  0
M  END
>  <Energy>  (240) 
544.83886499507958

>  <compound_id>  (240) 
60638

>  <target_id>  (240) 
1

>  <reference_id>  (240) 
116

>  <inspiration_ids>  (240) 
[123, 116]

>  <energy_score>  (240) 
468.9604355738627

>  <distance_score>  (240) 
6.910141094135507

>  <path>  (240) 
/opt/xchem-fragalysis-2/maxwin/BulkDock/SCRATCH/511021/C60638-P116/C60638-P116.minimised.mol

>  <scratch_subdir>  (240) 
/opt/xchem-fragalysis-2/maxwin/BulkDock/SCRATCH/511021/C60638-P116

>  <fragmenstein_runtime>  (240) 
15.565022468566895

>  <fragmenstein_outcome>  (240) 
too moved

>  <fragmenstein_mode>  (240) 
expansion

>  <fragmenstein_error>  (240) 


$$$$
C60639-P123
     RDKit          3D

 41 43  0  0  0  0  0  0  0  0999 V2000
  -12.4093  -23.1837   32.4437 C   0  0  0  0  0  0  0  0  0  0  0  0
  -13.0827  -22.2177   33.4139 C   0  0  0  0  0  0  0  0  0  0  0  0
  -12.3303  -21.0063   33.3120 O   0  0  0  0  0  0  0  0  0  0  0  0
  -12.5688  -19.9762   34.1700 C   0  0  0  0  0  0  0  0  0  0  0  0
  -13.5483  -19.8581   34.8931 O   0  0  0  0  0  0  0  0  0  0  0  0
  -11.4666  -19.0190   34.0724 C   0  0  0  0  0  0  0  0  0  0  0  0
  -10.0736  -19.2904   33.1994 C   0  0  0  0  0  0  0  0  0  0  0  0
   -9.0665  -18.4658   33.8384 C   0  0  0  0  0  0  0  0  0  0  0  0
   -9.8039  -17.5741   34.6107 N   0  0  0  0  0  0  0  0  0  0  0  0
  -11.1356  -17.8926   34.8892 C   0  0  0  0  0  0  0  0  0  0  0  0
   -8.8990  -16.5599   35.0327 C   0  0  0  0  0  0  0  0  0  0  0  0
   -7.8835  -16.4595   33.7070 C   0  0  0  0  0  0  0  0  0  0  0  0
   -6.7053  -17.4812   33.3000 N   0  0  0  0  0  0  0  0  0  0  0  0
   -6.4649  -17.4753   31.7824 C   0  0  0  0  0  0  0  0  0  0  0  0
   -6.9669  -18.1634   30.9812 O   0  0  0  0  0  0  0  0  0  0  0  0
   -5.5312  -16.3546   31.0188 C   0  0  0  0  0  0  0  0  0  0  0  0
   -4.8755  -16.5925   32.4052 O   0  0  0  0  0  0  0  0  0  0  0  0
   -3.9708  -16.0340   29.8280 C   0  0  0  0  0  0  0  0  0  0  0  0
   -2.7574  -15.7067   30.3938 C   0  0  0  0  0  0  0  0  0  0  0  0
   -2.1535  -14.9329   29.4559 N   0  0  0  0  0  0  0  0  0  0  0  0
   -2.5612  -15.2914   28.2281 C   0  0  0  0  0  0  0  0  0  0  0  0
   -3.5935  -16.1699   28.4658 N   0  0  0  0  0  0  0  0  0  0  0  0
   -7.5244  -18.4026   34.1484 C   0  0  0  0  0  0  0  0  0  0  0  0
  -12.7515  -24.2037   32.6047 H   0  0  0  0  0  0  0  0  0  0  0  0
  -11.3218  -23.1751   32.5665 H   0  0  0  0  0  0  0  0  0  0  0  0
  -12.6098  -22.8883   31.4087 H   0  0  0  0  0  0  0  0  0  0  0  0
  -13.0246  -22.5991   34.4377 H   0  0  0  0  0  0  0  0  0  0  0  0
  -14.1249  -22.0379   33.1348 H   0  0  0  0  0  0  0  0  0  0  0  0
   -9.9568  -20.1698   32.5825 H   0  0  0  0  0  0  0  0  0  0  0  0
  -11.7059  -17.3586   35.6350 H   0  0  0  0  0  0  0  0  0  0  0  0
   -9.5902  -15.7657   35.2849 H   0  0  0  0  0  0  0  0  0  0  0  0
   -8.3810  -16.8433   35.9546 H   0  0  0  0  0  0  0  0  0  0  0  0
   -8.4450  -16.0513   32.8751 H   0  0  0  0  0  0  0  0  0  0  0  0
   -7.2065  -15.6568   34.0185 H   0  0  0  0  0  0  0  0  0  0  0  0
   -5.6614  -16.9090   30.0581 H   0  0  0  0  0  0  0  0  0  0  0  0
   -4.8620  -17.5251   32.6303 H   0  0  0  0  0  0  0  0  0  0  0  0
   -2.3619  -15.8869   31.3983 H   0  0  0  0  0  0  0  0  0  0  0  0
   -1.2283  -14.5881   29.6102 H   0  0  0  0  0  0  0  0  0  0  0  0
   -2.0290  -15.1200   27.3180 H   0  0  0  0  0  0  0  0  0  0  0  0
   -7.1785  -19.4045   33.8979 H   0  0  0  0  0  0  0  0  0  0  0  0
   -7.2644  -18.3056   35.2103 H   0  0  0  0  0  0  0  0  0  0  0  0
  1  2  1  0
  2  3  1  0
  3  4  1  0
  4  5  2  0
  4  6  1  0
  6  7  1  0
  7  8  2  0
  8  9  1  0
  9 10  1  0
  9 11  1  0
 11 12  1  0
 12 13  1  0
 13 14  1  0
 14 15  2  0
 14 16  1  0
 16 17  1  0
 16 18  1  0
 18 19  2  0
 19 20  1  0
 20 21  1  0
 21 22  2  0
 13 23  1  0
 10  6  2  0
 22 18  1  0
 23  8  1  0
  1 24  1  0
  1 25  1  0
  1 26  1  0
  2 27  1  0
  2 28  1  0
  7 29  1  0
 10 30  1  0
 11 31  1  0
 11 32  1  0
 12 33  1  0
 12 34  1  0
 16 35  1  0
 17 36  1  0
 19 37  1  0
 20 38  1  0
 21 39  1  0
 23 40  1  0
 23 41  1  0
M  END
>  <Energy>  (241) 
442.77063626322325

>  <compound_id>  (241) 
60639

>  <target_id>  (241) 
1

>  <reference_id>  (241) 
123

>  <inspiration_ids>  (241) 
[123, 116]

>  <energy_score>  (241) 
334.12605405190914

>  <distance_score>  (241) 
5.437230811697468

>  <path>  (241) 
/opt/xchem-fragalysis-2/maxwin/BulkDock/SCRATCH/511021/C60639-P123/C60639-P123.minimised.mol

>  <scratch_subdir>  (241) 
/opt/xchem-fragalysis-2/maxwin/BulkDock/SCRATCH/511021/C60639-P123

>  <fragmenstein_runtime>  (241) 
19.840715408325195

>  <fragmenstein_outcome>  (241) 
too moved

>  <fragmenstein_mode>  (241) 
expansion

>  <fragmenstein_error>  (241) 


$$$$
C60639-P116
     RDKit          3D

 41 43  0  0  0  0  0  0  0  0999 V2000
  -11.4578  -22.1501   28.9573 C   0  0  0  0  0  0  0  0  0  0  0  0
  -11.7646  -21.8058   30.4155 C   0  0  0  0  0  0  0  0  0  0  0  0
  -10.7642  -21.0711   31.2000 O   0  0  0  0  0  0  0  0  0  0  0  0
   -9.8717  -21.7588   32.4280 C   0  0  0  0  0  0  0  0  0  0  0  0
  -10.0220  -23.0716   32.5227 O   0  0  0  0  0  0  0  0  0  0  0  0
   -8.7856  -20.8728   33.8084 C   0  0  0  0  0  0  0  0  0  0  0  0
   -7.6335  -21.4460   34.5014 C   0  0  0  0  0  0  0  0  0  0  0  0
   -6.9661  -20.3986   35.1072 C   0  0  0  0  0  0  0  0  0  0  0  0
   -7.6989  -19.2732   34.8857 N   0  0  0  0  0  0  0  0  0  0  0  0
   -8.9091  -19.5643   34.3296 C   0  0  0  0  0  0  0  0  0  0  0  0
   -6.9285  -18.0638   34.6879 C   0  0  0  0  0  0  0  0  0  0  0  0
   -5.4754  -18.5519   34.4767 C   0  0  0  0  0  0  0  0  0  0  0  0
   -4.7900  -18.9192   35.7771 N   0  0  0  0  0  0  0  0  0  0  0  0
   -3.3836  -18.5902   35.7041 C   0  0  0  0  0  0  0  0  0  0  0  0
   -2.4422  -19.2535   35.3493 O   0  0  0  0  0  0  0  0  0  0  0  0
   -3.1761  -17.0790   36.0721 C   0  0  0  0  0  0  0  0  0  0  0  0
   -2.8103  -16.9417   37.4507 O   0  0  0  0  0  0  0  0  0  0  0  0
   -2.1608  -16.4702   35.1269 C   0  0  0  0  0  0  0  0  0  0  0  0
   -0.8888  -16.0071   35.3952 C   0  0  0  0  0  0  0  0  0  0  0  0
   -0.3577  -15.6558   34.1894 N   0  0  0  0  0  0  0  0  0  0  0  0
   -1.3114  -15.8658   33.2432 C   0  0  0  0  0  0  0  0  0  0  0  0
   -2.4160  -16.3461   33.7700 N   0  0  0  0  0  0  0  0  0  0  0  0
   -5.5289  -20.2700   35.5335 C   0  0  0  0  0  0  0  0  0  0  0  0
  -11.0038  -23.1308   28.8173 H   0  0  0  0  0  0  0  0  0  0  0  0
  -10.7725  -21.4730   28.4942 H   0  0  0  0  0  0  0  0  0  0  0  0
  -12.3587  -22.1349   28.3467 H   0  0  0  0  0  0  0  0  0  0  0  0
  -11.9468  -22.6640   31.0132 H   0  0  0  0  0  0  0  0  0  0  0  0
  -12.6757  -21.2182   30.4059 H   0  0  0  0  0  0  0  0  0  0  0  0
   -7.2417  -22.4486   34.3880 H   0  0  0  0  0  0  0  0  0  0  0  0
   -9.6132  -18.7762   34.1037 H   0  0  0  0  0  0  0  0  0  0  0  0
   -7.3041  -17.5479   33.7991 H   0  0  0  0  0  0  0  0  0  0  0  0
   -7.0429  -17.4359   35.5763 H   0  0  0  0  0  0  0  0  0  0  0  0
   -5.3206  -19.2604   33.6544 H   0  0  0  0  0  0  0  0  0  0  0  0
   -4.9490  -17.6583   34.1113 H   0  0  0  0  0  0  0  0  0  0  0  0
   -4.1163  -16.5305   35.9427 H   0  0  0  0  0  0  0  0  0  0  0  0
   -3.4561  -17.4800   37.9380 H   0  0  0  0  0  0  0  0  0  0  0  0
   -0.3257  -15.9419   36.3153 H   0  0  0  0  0  0  0  0  0  0  0  0
    0.5779  -15.3116   34.0321 H   0  0  0  0  0  0  0  0  0  0  0  0
   -1.1338  -15.6568   32.1987 H   0  0  0  0  0  0  0  0  0  0  0  0
   -4.8895  -20.8720   34.8712 H   0  0  0  0  0  0  0  0  0  0  0  0
   -5.4430  -20.7669   36.5102 H   0  0  0  0  0  0  0  0  0  0  0  0
  1  2  1  0
  2  3  1  0
  3  4  1  0
  4  5  2  0
  4  6  1  0
  6  7  1  0
  7  8  2  0
  8  9  1  0
  9 10  1  0
  9 11  1  0
 11 12  1  0
 12 13  1  0
 13 14  1  0
 14 15  2  0
 14 16  1  0
 16 17  1  0
 16 18  1  0
 18 19  2  0
 19 20  1  0
 20 21  1  0
 21 22  2  0
 13 23  1  0
 10  6  2  0
 22 18  1  0
 23  8  1  0
  1 24  1  0
  1 25  1  0
  1 26  1  0
  2 27  1  0
  2 28  1  0
  7 29  1  0
 10 30  1  0
 11 31  1  0
 11 32  1  0
 12 33  1  0
 12 34  1  0
 16 35  1  0
 17 36  1  0
 19 37  1  0
 20 38  1  0
 21 39  1  0
 23 40  1  0
 23 41  1  0
M  END
>  <Energy>  (242) 
288.40744194445273

>  <compound_id>  (242) 
60639

>  <target_id>  (242) 
1

>  <reference_id>  (242) 
116

>  <inspiration_ids>  (242) 
[123, 116]

>  <energy_score>  (242) 
179.7628597331434

>  <distance_score>  (242) 
5.8596003712641735

>  <path>  (242) 
/opt/xchem-fragalysis-2/maxwin/BulkDock/SCRATCH/511021/C60639-P116/C60639-P116.minimised.mol

>  <scratch_subdir>  (242) 
/opt/xchem-fragalysis-2/maxwin/BulkDock/SCRATCH/511021/C60639-P116

>  <fragmenstein_runtime>  (242) 
17.301695108413696

>  <fragmenstein_outcome>  (242) 
too moved

>  <fragmenstein_mode>  (242) 
expansion

>  <fragmenstein_error>  (242) 


$$$$
C60640-P123
     RDKit          3D

 34 35  0  0  0  0  0  0  0  0999 V2000
  -10.9466  -26.9117   30.9946 C   0  0  0  0  0  0  0  0  0  0  0  0
  -11.3803  -25.5966   30.4192 C   0  0  0  0  0  0  0  0  0  0  0  0
  -12.0858  -25.8526   29.1930 O   0  0  0  0  0  0  0  0  0  0  0  0
  -12.7406  -24.8361   28.5831 C   0  0  0  0  0  0  0  0  0  0  0  0
  -13.7114  -25.0131   27.8595 O   0  0  0  0  0  0  0  0  0  0  0  0
  -12.1472  -23.5226   28.7596 C   0  0  0  0  0  0  0  0  0  0  0  0
  -12.1092  -22.7164   29.7834 C   0  0  0  0  0  0  0  0  0  0  0  0
  -11.1943  -21.6697   29.3300 C   0  0  0  0  0  0  0  0  0  0  0  0
  -10.8930  -21.4536   27.8566 N   0  0  0  0  0  0  0  0  0  0  0  0
   -9.3917  -20.6443   27.6658 C   0  0  0  0  0  0  0  0  0  0  0  0
   -8.2511  -21.2235   27.5289 O   0  0  0  0  0  0  0  0  0  0  0  0
   -9.1279  -18.5203   27.7107 C   0  0  0  0  0  0  0  0  0  0  0  0
   -8.1932  -18.0207   28.5284 O   0  0  0  0  0  0  0  0  0  0  0  0
   -9.4148  -16.7939   26.7740 C   0  0  0  0  0  0  0  0  0  0  0  0
  -10.3152  -15.6860   26.6993 C   0  0  0  0  0  0  0  0  0  0  0  0
   -9.8635  -14.6760   25.8913 N   0  0  0  0  0  0  0  0  0  0  0  0
   -8.5482  -14.8600   25.9193 C   0  0  0  0  0  0  0  0  0  0  0  0
   -8.3031  -15.9944   26.5486 N   0  0  0  0  0  0  0  0  0  0  0  0
  -11.2438  -22.9378   27.7931 C   0  0  0  0  0  0  0  0  0  0  0  0
  -10.7289  -26.7938   32.0556 H   0  0  0  0  0  0  0  0  0  0  0  0
  -11.7122  -27.6810   30.8725 H   0  0  0  0  0  0  0  0  0  0  0  0
  -10.0385  -27.2493   30.4943 H   0  0  0  0  0  0  0  0  0  0  0  0
  -10.4941  -24.9813   30.2332 H   0  0  0  0  0  0  0  0  0  0  0  0
  -12.0475  -25.1043   31.1324 H   0  0  0  0  0  0  0  0  0  0  0  0
  -12.6037  -22.8110   30.7381 H   0  0  0  0  0  0  0  0  0  0  0  0
  -10.4311  -21.3603   30.0226 H   0  0  0  0  0  0  0  0  0  0  0  0
  -11.8853  -20.8300   29.4541 H   0  0  0  0  0  0  0  0  0  0  0  0
  -10.1050  -18.1091   27.6142 H   0  0  0  0  0  0  0  0  0  0  0  0
   -7.9081  -17.1280   28.2747 H   0  0  0  0  0  0  0  0  0  0  0  0
  -11.2177  -15.4225   27.2365 H   0  0  0  0  0  0  0  0  0  0  0  0
  -10.3436  -13.8138   25.6704 H   0  0  0  0  0  0  0  0  0  0  0  0
   -7.8290  -14.1341   25.5660 H   0  0  0  0  0  0  0  0  0  0  0  0
  -11.6623  -23.0629   26.7858 H   0  0  0  0  0  0  0  0  0  0  0  0
  -10.2932  -23.4935   27.7920 H   0  0  0  0  0  0  0  0  0  0  0  0
  1  2  1  0
  2  3  1  0
  3  4  1  0
  4  5  2  0
  4  6  1  0
  6  7  2  0
  7  8  1  0
  8  9  1  0
  9 10  1  0
 10 11  2  0
 10 12  1  0
 12 13  1  0
 12 14  1  0
 14 15  2  0
 15 16  1  0
 16 17  1  0
 17 18  2  0
  9 19  1  0
 19  6  1  0
 18 14  1  0
  1 20  1  0
  1 21  1  0
  1 22  1  0
  2 23  1  0
  2 24  1  0
  7 25  1  0
  8 26  1  0
  8 27  1  0
 12 28  1  0
 13 29  1  0
 15 30  1  0
 16 31  1  0
 17 32  1  0
 19 33  1  0
 19 34  1  0
M  END
>  <Energy>  (243) 
423.94843604956054

>  <compound_id>  (243) 
60640

>  <target_id>  (243) 
1

>  <reference_id>  (243) 
123

>  <inspiration_ids>  (243) 
[123, 116]

>  <energy_score>  (243) 
352.3038998504495

>  <distance_score>  (243) 
6.529369500131299

>  <path>  (243) 
/opt/xchem-fragalysis-2/maxwin/BulkDock/SCRATCH/511021/C60640-P123/C60640-P123.minimised.mol

>  <scratch_subdir>  (243) 
/opt/xchem-fragalysis-2/maxwin/BulkDock/SCRATCH/511021/C60640-P123

>  <fragmenstein_runtime>  (243) 
18.318330764770508

>  <fragmenstein_outcome>  (243) 
too moved

>  <fragmenstein_mode>  (243) 
expansion

>  <fragmenstein_error>  (243) 


$$$$
C60640-P116
     RDKit          3D

 34 35  0  0  0  0  0  0  0  0999 V2000
  -11.6049  -21.2994   29.5710 C   0  0  0  0  0  0  0  0  0  0  0  0
  -11.2273  -21.1162   31.0571 C   0  0  0  0  0  0  0  0  0  0  0  0
  -10.6078  -19.8314   32.3276 O   0  0  0  0  0  0  0  0  0  0  0  0
   -9.6811  -19.1770   33.5978 C   0  0  0  0  0  0  0  0  0  0  0  0
  -10.2950  -18.6182   34.5362 O   0  0  0  0  0  0  0  0  0  0  0  0
   -8.1006  -19.0013   33.7973 C   0  0  0  0  0  0  0  0  0  0  0  0
   -6.7872  -19.3044   33.8997 C   0  0  0  0  0  0  0  0  0  0  0  0
   -5.9595  -17.9041   33.7370 C   0  0  0  0  0  0  0  0  0  0  0  0
   -6.9266  -17.1718   32.8247 N   0  0  0  0  0  0  0  0  0  0  0  0
   -6.7857  -17.6995   31.3037 C   0  0  0  0  0  0  0  0  0  0  0  0
   -7.3800  -18.6030   30.7617 O   0  0  0  0  0  0  0  0  0  0  0  0
   -5.5697  -16.5954   30.0358 C   0  0  0  0  0  0  0  0  0  0  0  0
   -6.0418  -15.2174   30.0997 O   0  0  0  0  0  0  0  0  0  0  0  0
   -4.2184  -16.5232   28.5783 C   0  0  0  0  0  0  0  0  0  0  0  0
   -2.8480  -15.5547   28.4364 C   0  0  0  0  0  0  0  0  0  0  0  0
   -1.9344  -16.2101   27.6678 N   0  0  0  0  0  0  0  0  0  0  0  0
   -2.5174  -17.3311   27.2231 C   0  0  0  0  0  0  0  0  0  0  0  0
   -3.6969  -17.5514   27.7972 N   0  0  0  0  0  0  0  0  0  0  0  0
   -7.8758  -17.5633   33.8997 C   0  0  0  0  0  0  0  0  0  0  0  0
  -12.1470  -22.2447   29.5056 H   0  0  0  0  0  0  0  0  0  0  0  0
  -12.3592  -20.6036   29.2037 H   0  0  0  0  0  0  0  0  0  0  0  0
  -10.8112  -21.4651   28.8624 H   0  0  0  0  0  0  0  0  0  0  0  0
  -12.2968  -20.9550   31.2894 H   0  0  0  0  0  0  0  0  0  0  0  0
  -11.2166  -22.1196   31.5167 H   0  0  0  0  0  0  0  0  0  0  0  0
   -6.3449  -20.2858   33.8283 H   0  0  0  0  0  0  0  0  0  0  0  0
   -4.9646  -18.0203   33.3395 H   0  0  0  0  0  0  0  0  0  0  0  0
   -5.7847  -17.4018   34.7034 H   0  0  0  0  0  0  0  0  0  0  0  0
   -6.1727  -17.0162   29.2535 H   0  0  0  0  0  0  0  0  0  0  0  0
   -6.4512  -15.0128   30.9428 H   0  0  0  0  0  0  0  0  0  0  0  0
   -2.5193  -14.7551   29.0772 H   0  0  0  0  0  0  0  0  0  0  0  0
   -0.9387  -16.1093   27.7785 H   0  0  0  0  0  0  0  0  0  0  0  0
   -2.0295  -18.0219   26.5561 H   0  0  0  0  0  0  0  0  0  0  0  0
   -8.7623  -16.9611   33.6565 H   0  0  0  0  0  0  0  0  0  0  0  0
   -7.6768  -17.1672   34.9151 H   0  0  0  0  0  0  0  0  0  0  0  0
  1  2  1  0
  2  3  1  0
  3  4  1  0
  4  5  2  0
  4  6  1  0
  6  7  2  0
  7  8  1  0
  8  9  1  0
  9 10  1  0
 10 11  2  0
 10 12  1  0
 12 13  1  0
 12 14  1  0
 14 15  2  0
 15 16  1  0
 16 17  1  0
 17 18  2  0
  9 19  1  0
 19  6  1  0
 18 14  1  0
  1 20  1  0
  1 21  1  0
  1 22  1  0
  2 23  1  0
  2 24  1  0
  7 25  1  0
  8 26  1  0
  8 27  1  0
 12 28  1  0
 13 29  1  0
 15 30  1  0
 16 31  1  0
 17 32  1  0
 19 33  1  0
 19 34  1  0
M  END
>  <Energy>  (244) 
591.208134573179

>  <compound_id>  (244) 
60640

>  <target_id>  (244) 
1

>  <reference_id>  (244) 
116

>  <inspiration_ids>  (244) 
[123, 116]

>  <energy_score>  (244) 
519.5635983740796

>  <distance_score>  (244) 
6.091472730609698

>  <path>  (244) 
/opt/xchem-fragalysis-2/maxwin/BulkDock/SCRATCH/511021/C60640-P116/C60640-P116.minimised.mol

>  <scratch_subdir>  (244) 
/opt/xchem-fragalysis-2/maxwin/BulkDock/SCRATCH/511021/C60640-P116

>  <fragmenstein_runtime>  (244) 
9.970814228057861

>  <fragmenstein_outcome>  (244) 
too moved

>  <fragmenstein_mode>  (244) 
expansion

>  <fragmenstein_error>  (244) 


$$$$
C60641-P123
     RDKit          3D

 50 51  0  0  0  0  0  0  0  0999 V2000
  -11.1240  -26.2811   29.1927 C   0  0  0  0  0  0  0  0  0  0  0  0
  -11.5086  -24.8369   29.4165 C   0  0  0  0  0  0  0  0  0  0  0  0
  -11.1261  -24.4553   30.7426 O   0  0  0  0  0  0  0  0  0  0  0  0
  -11.3057  -23.1265   30.9790 C   0  0  0  0  0  0  0  0  0  0  0  0
  -11.7467  -22.3376   30.1483 O   0  0  0  0  0  0  0  0  0  0  0  0
  -10.8527  -22.7413   32.3862 C   0  0  0  0  0  0  0  0  0  0  0  0
   -9.3251  -23.0823   32.7800 C   0  0  0  0  0  0  0  0  0  0  0  0
   -8.1430  -21.5572   33.0831 C   0  0  0  0  0  0  0  0  0  0  0  0
   -8.5356  -19.9122   33.4441 C   0  0  0  0  0  0  0  0  0  0  0  0
   -7.4372  -18.2650   33.3306 C   0  0  0  0  0  0  0  0  0  0  0  0
   -6.5626  -17.7322   31.7270 C   0  0  0  0  0  0  0  0  0  0  0  0
   -6.9281  -18.3654   30.8680 O   0  0  0  0  0  0  0  0  0  0  0  0
   -5.6548  -16.6231   31.5136 N   0  0  0  0  0  0  0  0  0  0  0  0
   -4.9932  -15.8854   30.0014 C   0  0  0  0  0  0  0  0  0  0  0  0
   -3.7511  -16.2770   28.5294 C   0  0  0  0  0  0  0  0  0  0  0  0
   -3.1364  -15.5360   30.2224 C   0  0  0  0  0  0  0  0  0  0  0  0
   -5.9158  -14.1677   30.1229 C   0  0  0  0  0  0  0  0  0  0  0  0
   -5.3743  -12.9320   30.0045 N   0  0  0  0  0  0  0  0  0  0  0  0
   -6.3148  -11.9978   30.3474 C   0  0  0  0  0  0  0  0  0  0  0  0
   -7.4925  -12.5342   30.7150 C   0  0  0  0  0  0  0  0  0  0  0  0
   -7.1370  -13.8217   30.8150 N   0  0  0  0  0  0  0  0  0  0  0  0
  -10.1966  -20.0435   32.8351 C   0  0  0  0  0  0  0  0  0  0  0  0
  -11.3221  -21.2607   32.6923 C   0  0  0  0  0  0  0  0  0  0  0  0
  -10.0442  -26.4100   29.3170 H   0  0  0  0  0  0  0  0  0  0  0  0
  -11.4073  -26.6103   28.1892 H   0  0  0  0  0  0  0  0  0  0  0  0
  -11.6107  -26.9284   29.9296 H   0  0  0  0  0  0  0  0  0  0  0  0
  -12.5906  -24.7160   29.2981 H   0  0  0  0  0  0  0  0  0  0  0  0
  -10.9890  -24.2136   28.6787 H   0  0  0  0  0  0  0  0  0  0  0  0
  -11.4771  -23.3833   33.0280 H   0  0  0  0  0  0  0  0  0  0  0  0
   -9.2225  -23.7561   33.6107 H   0  0  0  0  0  0  0  0  0  0  0  0
   -8.9068  -23.8319   32.0865 H   0  0  0  0  0  0  0  0  0  0  0  0
   -7.7747  -22.0566   33.8887 H   0  0  0  0  0  0  0  0  0  0  0  0
   -7.2566  -21.5207   32.4504 H   0  0  0  0  0  0  0  0  0  0  0  0
   -8.2282  -19.9348   34.4797 H   0  0  0  0  0  0  0  0  0  0  0  0
   -8.1129  -17.4434   33.6137 H   0  0  0  0  0  0  0  0  0  0  0  0
   -6.8331  -18.2941   34.2148 H   0  0  0  0  0  0  0  0  0  0  0  0
   -5.4000  -16.2610   32.4227 H   0  0  0  0  0  0  0  0  0  0  0  0
   -3.0406  -15.4660   28.2223 H   0  0  0  0  0  0  0  0  0  0  0  0
   -4.0984  -16.7860   27.6554 H   0  0  0  0  0  0  0  0  0  0  0  0
   -3.0247  -17.0003   28.0807 H   0  0  0  0  0  0  0  0  0  0  0  0
   -3.3042  -14.4871   29.9425 H   0  0  0  0  0  0  0  0  0  0  0  0
   -2.7132  -15.9132   31.1796 H   0  0  0  0  0  0  0  0  0  0  0  0
   -2.2188  -15.2327   29.6880 H   0  0  0  0  0  0  0  0  0  0  0  0
   -6.1917  -10.9446   30.3255 H   0  0  0  0  0  0  0  0  0  0  0  0
   -8.4288  -12.1256   31.0641 H   0  0  0  0  0  0  0  0  0  0  0  0
   -7.6805  -14.4130   31.4132 H   0  0  0  0  0  0  0  0  0  0  0  0
  -10.7621  -19.2485   33.2936 H   0  0  0  0  0  0  0  0  0  0  0  0
  -10.1032  -20.0261   31.7886 H   0  0  0  0  0  0  0  0  0  0  0  0
  -11.9385  -21.2620   33.6056 H   0  0  0  0  0  0  0  0  0  0  0  0
  -12.0447  -20.9755   31.9401 H   0  0  0  0  0  0  0  0  0  0  0  0
  1  2  1  0
  2  3  1  0
  3  4  1  0
  4  5  2  0
  4  6  1  0
  6  7  1  0
  7  8  1  0
  8  9  1  0
  9 10  1  0
 10 11  1  0
 11 12  2  0
 11 13  1  0
 13 14  1  0
 14 15  1  0
 14 16  1  0
 14 17  1  0
 17 18  2  0
 18 19  1  0
 19 20  2  0
 20 21  1  0
  9 22  1  0
 22 23  1  0
 23  6  1  0
 21 17  1  0
  1 24  1  0
  1 25  1  0
  1 26  1  0
  2 27  1  0
  2 28  1  0
  6 29  1  0
  7 30  1  0
  7 31  1  0
  8 32  1  0
  8 33  1  0
  9 34  1  0
 10 35  1  0
 10 36  1  0
 13 37  1  0
 15 38  1  0
 15 39  1  0
 15 40  1  0
 16 41  1  0
 16 42  1  0
 16 43  1  0
 19 44  1  0
 20 45  1  0
 21 46  1  0
 22 47  1  0
 22 48  1  0
 23 49  1  0
 23 50  1  0
M  END
>  <Energy>  (245) 
605.01506248173052

>  <compound_id>  (245) 
60641

>  <target_id>  (245) 
1

>  <reference_id>  (245) 
123

>  <inspiration_ids>  (245) 
[123, 116]

>  <energy_score>  (245) 
557.2111344477479

>  <distance_score>  (245) 
4.42413050688935

>  <path>  (245) 
/opt/xchem-fragalysis-2/maxwin/BulkDock/SCRATCH/511021/C60641-P123/C60641-P123.minimised.mol

>  <scratch_subdir>  (245) 
/opt/xchem-fragalysis-2/maxwin/BulkDock/SCRATCH/511021/C60641-P123

>  <fragmenstein_runtime>  (245) 
27.8130099773407

>  <fragmenstein_outcome>  (245) 
too moved

>  <fragmenstein_mode>  (245) 
expansion

>  <fragmenstein_error>  (245) 


$$$$
C60641-P116
     RDKit          3D

 50 51  0  0  0  0  0  0  0  0999 V2000
  -11.4647  -22.7850   27.7600 C   0  0  0  0  0  0  0  0  0  0  0  0
  -11.9448  -21.9296   28.8962 C   0  0  0  0  0  0  0  0  0  0  0  0
  -10.9508  -21.3160   29.7246 O   0  0  0  0  0  0  0  0  0  0  0  0
  -11.4513  -20.9790   30.9219 C   0  0  0  0  0  0  0  0  0  0  0  0
  -12.6187  -21.2434   31.0902 O   0  0  0  0  0  0  0  0  0  0  0  0
  -10.4897  -20.0084   32.2536 C   0  0  0  0  0  0  0  0  0  0  0  0
   -9.5803  -21.5998   32.5423 C   0  0  0  0  0  0  0  0  0  0  0  0
   -7.9500  -20.8965   33.5675 C   0  0  0  0  0  0  0  0  0  0  0  0
   -7.3114  -19.0447   33.1851 C   0  0  0  0  0  0  0  0  0  0  0  0
   -6.7524  -17.4918   32.0518 C   0  0  0  0  0  0  0  0  0  0  0  0
   -5.7893  -16.9215   30.2326 C   0  0  0  0  0  0  0  0  0  0  0  0
   -6.3309  -17.5968   28.8401 O   0  0  0  0  0  0  0  0  0  0  0  0
   -4.8557  -16.3495   29.8885 N   0  0  0  0  0  0  0  0  0  0  0  0
   -3.6451  -16.0281   28.3221 C   0  0  0  0  0  0  0  0  0  0  0  0
   -2.2218  -15.4374   27.3577 C   0  0  0  0  0  0  0  0  0  0  0  0
   -3.0466  -17.4042   27.6560 C   0  0  0  0  0  0  0  0  0  0  0  0
   -2.2544  -14.9393   29.1860 C   0  0  0  0  0  0  0  0  0  0  0  0
   -1.2225  -15.3821   29.9357 N   0  0  0  0  0  0  0  0  0  0  0  0
   -0.2123  -14.4542   30.0266 C   0  0  0  0  0  0  0  0  0  0  0  0
   -0.5808  -13.3011   29.4079 C   0  0  0  0  0  0  0  0  0  0  0  0
   -1.8505  -13.5291   28.9375 N   0  0  0  0  0  0  0  0  0  0  0  0
   -8.4514  -18.4027   34.0029 C   0  0  0  0  0  0  0  0  0  0  0  0
   -9.8332  -19.0731   33.7823 C   0  0  0  0  0  0  0  0  0  0  0  0
  -12.1643  -23.5925   27.5350 H   0  0  0  0  0  0  0  0  0  0  0  0
  -10.4816  -23.2180   27.9376 H   0  0  0  0  0  0  0  0  0  0  0  0
  -11.4866  -22.1688   26.8684 H   0  0  0  0  0  0  0  0  0  0  0  0
  -12.5160  -22.5745   29.5283 H   0  0  0  0  0  0  0  0  0  0  0  0
  -12.6194  -21.1620   28.5336 H   0  0  0  0  0  0  0  0  0  0  0  0
  -11.4251  -19.5925   32.6073 H   0  0  0  0  0  0  0  0  0  0  0  0
  -10.4830  -22.2853   32.4579 H   0  0  0  0  0  0  0  0  0  0  0  0
   -9.4252  -22.7343   32.5116 H   0  0  0  0  0  0  0  0  0  0  0  0
   -7.0454  -21.4814   33.3733 H   0  0  0  0  0  0  0  0  0  0  0  0
   -8.1701  -20.9416   34.6412 H   0  0  0  0  0  0  0  0  0  0  0  0
   -6.4101  -19.0847   33.8189 H   0  0  0  0  0  0  0  0  0  0  0  0
   -7.1920  -16.6786   32.6906 H   0  0  0  0  0  0  0  0  0  0  0  0
   -5.8730  -17.3125   32.7512 H   0  0  0  0  0  0  0  0  0  0  0  0
   -4.0358  -15.8229   30.0105 H   0  0  0  0  0  0  0  0  0  0  0  0
   -2.3032  -15.8493   26.3580 H   0  0  0  0  0  0  0  0  0  0  0  0
   -2.2256  -14.3887   27.0135 H   0  0  0  0  0  0  0  0  0  0  0  0
   -1.2736  -15.8978   27.6891 H   0  0  0  0  0  0  0  0  0  0  0  0
   -3.7393  -18.1747   27.8392 H   0  0  0  0  0  0  0  0  0  0  0  0
   -2.8739  -17.4102   26.5781 H   0  0  0  0  0  0  0  0  0  0  0  0
   -2.0184  -17.6822   27.8861 H   0  0  0  0  0  0  0  0  0  0  0  0
    0.7144  -14.6823   30.5364 H   0  0  0  0  0  0  0  0  0  0  0  0
   -0.0778  -12.3560   29.2597 H   0  0  0  0  0  0  0  0  0  0  0  0
   -2.3308  -12.8305   28.3882 H   0  0  0  0  0  0  0  0  0  0  0  0
   -8.5490  -17.3201   33.8842 H   0  0  0  0  0  0  0  0  0  0  0  0
   -8.1944  -18.5041   35.0683 H   0  0  0  0  0  0  0  0  0  0  0  0
   -9.8227  -19.7374   34.6607 H   0  0  0  0  0  0  0  0  0  0  0  0
  -10.5710  -18.3062   34.0567 H   0  0  0  0  0  0  0  0  0  0  0  0
  1  2  1  0
  2  3  1  0
  3  4  1  0
  4  5  2  0
  4  6  1  0
  6  7  1  0
  7  8  1  0
  8  9  1  0
  9 10  1  0
 10 11  1  0
 11 12  2  0
 11 13  1  0
 13 14  1  0
 14 15  1  0
 14 16  1  0
 14 17  1  0
 17 18  2  0
 18 19  1  0
 19 20  2  0
 20 21  1  0
  9 22  1  0
 22 23  1  0
 23  6  1  0
 21 17  1  0
  1 24  1  0
  1 25  1  0
  1 26  1  0
  2 27  1  0
  2 28  1  0
  6 29  1  0
  7 30  1  0
  7 31  1  0
  8 32  1  0
  8 33  1  0
  9 34  1  0
 10 35  1  0
 10 36  1  0
 13 37  1  0
 15 38  1  0
 15 39  1  0
 15 40  1  0
 16 41  1  0
 16 42  1  0
 16 43  1  0
 19 44  1  0
 20 45  1  0
 21 46  1  0
 22 47  1  0
 22 48  1  0
 23 49  1  0
 23 50  1  0
M  END
>  <Energy>  (246) 
1119.9237278790551

>  <compound_id>  (246) 
60641

>  <target_id>  (246) 
1

>  <reference_id>  (246) 
116

>  <inspiration_ids>  (246) 
[123, 116]

>  <energy_score>  (246) 
1072.1197998450834

>  <distance_score>  (246) 
3.6726730879598177

>  <path>  (246) 
/opt/xchem-fragalysis-2/maxwin/BulkDock/SCRATCH/511021/C60641-P116/C60641-P116.minimised.mol

>  <scratch_subdir>  (246) 
/opt/xchem-fragalysis-2/maxwin/BulkDock/SCRATCH/511021/C60641-P116

>  <fragmenstein_runtime>  (246) 
28.02769160270691

>  <fragmenstein_outcome>  (246) 
too moved

>  <fragmenstein_mode>  (246) 
expansion

>  <fragmenstein_error>  (246) 


$$$$
C60642-P123
     RDKit          3D

 43 44  0  0  0  0  0  0  0  0999 V2000
  -12.3036  -25.2754   27.8603 C   0  0  0  0  0  0  0  0  0  0  0  0
  -11.8606  -26.4085   28.7718 C   0  0  0  0  0  0  0  0  0  0  0  0
  -11.5310  -25.9002   30.0691 O   0  0  0  0  0  0  0  0  0  0  0  0
  -10.2623  -25.4159   30.1803 C   0  0  0  0  0  0  0  0  0  0  0  0
   -9.4007  -25.5333   29.3200 O   0  0  0  0  0  0  0  0  0  0  0  0
  -10.1019  -24.6475   31.4191 C   0  0  0  0  0  0  0  0  0  0  0  0
  -10.9894  -23.7210   31.7194 C   0  0  0  0  0  0  0  0  0  0  0  0
  -10.4970  -22.7944   32.5823 N   0  0  0  0  0  0  0  0  0  0  0  0
   -8.8339  -23.0235   33.0044 N   0  0  0  0  0  0  0  0  0  0  0  0
   -7.9086  -21.2996   33.0077 C   0  0  0  0  0  0  0  0  0  0  0  0
   -6.3117  -20.5159   32.0950 C   0  0  0  0  0  0  0  0  0  0  0  0
   -5.3334  -21.2019   32.3039 O   0  0  0  0  0  0  0  0  0  0  0  0
   -6.5767  -18.8630   30.8752 N   0  0  0  0  0  0  0  0  0  0  0  0
   -5.4722  -18.0209   29.6439 C   0  0  0  0  0  0  0  0  0  0  0  0
   -5.2884  -18.1997   27.7597 C   0  0  0  0  0  0  0  0  0  0  0  0
   -5.0005  -19.7290   30.9926 C   0  0  0  0  0  0  0  0  0  0  0  0
   -4.3206  -16.4116   29.4559 C   0  0  0  0  0  0  0  0  0  0  0  0
   -3.5253  -16.2984   28.2636 N   0  0  0  0  0  0  0  0  0  0  0  0
   -2.4781  -15.2845   28.1377 C   0  0  0  0  0  0  0  0  0  0  0  0
   -2.5838  -14.7942   29.3705 C   0  0  0  0  0  0  0  0  0  0  0  0
   -3.1729  -15.7567   30.1347 N   0  0  0  0  0  0  0  0  0  0  0  0
   -8.8436  -24.3248   32.2277 C   0  0  0  0  0  0  0  0  0  0  0  0
   -8.1064  -25.3454   32.0584 N   0  0  0  0  0  0  0  0  0  0  0  0
  -11.4905  -24.5605   27.6981 H   0  0  0  0  0  0  0  0  0  0  0  0
  -13.1311  -24.7177   28.3106 H   0  0  0  0  0  0  0  0  0  0  0  0
  -12.6246  -25.6627   26.8892 H   0  0  0  0  0  0  0  0  0  0  0  0
  -12.6739  -27.1291   28.8972 H   0  0  0  0  0  0  0  0  0  0  0  0
  -11.0233  -26.9510   28.3264 H   0  0  0  0  0  0  0  0  0  0  0  0
  -11.9726  -23.5687   31.2915 H   0  0  0  0  0  0  0  0  0  0  0  0
  -11.0853  -22.9338   33.4247 H   0  0  0  0  0  0  0  0  0  0  0  0
   -8.8031  -20.7071   32.7573 H   0  0  0  0  0  0  0  0  0  0  0  0
   -7.7943  -20.9718   34.0131 H   0  0  0  0  0  0  0  0  0  0  0  0
   -7.4708  -18.4524   30.9738 H   0  0  0  0  0  0  0  0  0  0  0  0
   -6.4152  -17.5392   27.9934 H   0  0  0  0  0  0  0  0  0  0  0  0
   -5.5068  -19.1159   27.1405 H   0  0  0  0  0  0  0  0  0  0  0  0
   -4.4580  -17.6345   27.4124 H   0  0  0  0  0  0  0  0  0  0  0  0
   -4.4894  -19.7325   32.0771 H   0  0  0  0  0  0  0  0  0  0  0  0
   -5.3122  -19.0306   32.1822 H   0  0  0  0  0  0  0  0  0  0  0  0
   -3.9564  -19.9954   31.0128 H   0  0  0  0  0  0  0  0  0  0  0  0
   -2.0255  -15.0435   27.2068 H   0  0  0  0  0  0  0  0  0  0  0  0
   -2.7268  -13.7499   29.5935 H   0  0  0  0  0  0  0  0  0  0  0  0
   -2.7562  -16.0253   31.0209 H   0  0  0  0  0  0  0  0  0  0  0  0
   -7.1741  -25.4282   32.4303 H   0  0  0  0  0  0  0  0  0  0  0  0
  1  2  1  0
  2  3  1  0
  3  4  1  0
  4  5  2  0
  4  6  1  0
  6  7  2  0
  7  8  1  0
  8  9  1  0
  9 10  1  0
 10 11  1  0
 11 12  2  0
 11 13  1  0
 13 14  1  0
 14 15  1  0
 14 16  1  0
 14 17  1  0
 17 18  2  0
 18 19  1  0
 19 20  2  0
 20 21  1  0
  9 22  1  0
 22 23  2  3
 22  6  1  0
 21 17  1  0
  1 24  1  0
  1 25  1  0
  1 26  1  0
  2 27  1  0
  2 28  1  0
  7 29  1  0
  8 30  1  0
 10 31  1  0
 10 32  1  0
 13 33  1  0
 15 34  1  0
 15 35  1  0
 15 36  1  0
 16 37  1  0
 16 38  1  0
 16 39  1  0
 19 40  1  0
 20 41  1  0
 21 42  1  0
 23 43  1  0
M  END
>  <Energy>  (247) 
1218.620299397023

>  <compound_id>  (247) 
60642

>  <target_id>  (247) 
1

>  <reference_id>  (247) 
123

>  <inspiration_ids>  (247) 
[123, 116]

>  <energy_score>  (247) 
1110.3493280911157

>  <distance_score>  (247) 
3.2152566219893246

>  <path>  (247) 
/opt/xchem-fragalysis-2/maxwin/BulkDock/SCRATCH/511021/C60642-P123/C60642-P123.minimised.mol

>  <scratch_subdir>  (247) 
/opt/xchem-fragalysis-2/maxwin/BulkDock/SCRATCH/511021/C60642-P123

>  <fragmenstein_runtime>  (247) 
26.313538789749146

>  <fragmenstein_outcome>  (247) 
too moved

>  <fragmenstein_mode>  (247) 
expansion

>  <fragmenstein_error>  (247) 


$$$$
C60642-P116
     RDKit          3D

 43 44  0  0  0  0  0  0  0  0999 V2000
  -11.5930  -22.7969   27.9316 C   0  0  0  0  0  0  0  0  0  0  0  0
  -11.4179  -22.4930   29.4095 C   0  0  0  0  0  0  0  0  0  0  0  0
  -10.5420  -23.7552   29.9429 O   0  0  0  0  0  0  0  0  0  0  0  0
  -10.0357  -24.2703   31.4924 C   0  0  0  0  0  0  0  0  0  0  0  0
  -10.7713  -23.8703   32.3645 O   0  0  0  0  0  0  0  0  0  0  0  0
   -8.6052  -25.3170   31.7672 C   0  0  0  0  0  0  0  0  0  0  0  0
   -8.3277  -24.5029   32.9277 C   0  0  0  0  0  0  0  0  0  0  0  0
   -6.8018  -23.9176   33.2875 N   0  0  0  0  0  0  0  0  0  0  0  0
   -5.8283  -24.1341   32.1782 N   0  0  0  0  0  0  0  0  0  0  0  0
   -4.5199  -22.8269   31.9637 C   0  0  0  0  0  0  0  0  0  0  0  0
   -4.0884  -22.4798   30.0079 C   0  0  0  0  0  0  0  0  0  0  0  0
   -4.5888  -23.1606   29.0740 O   0  0  0  0  0  0  0  0  0  0  0  0
   -2.8726  -21.0751   29.9569 N   0  0  0  0  0  0  0  0  0  0  0  0
   -1.8027  -20.2192   28.3742 C   0  0  0  0  0  0  0  0  0  0  0  0
   -2.4250  -19.4020   26.8697 C   0  0  0  0  0  0  0  0  0  0  0  0
   -0.8878  -19.6124   29.4157 C   0  0  0  0  0  0  0  0  0  0  0  0
   -1.8094  -18.1835   27.8229 C   0  0  0  0  0  0  0  0  0  0  0  0
   -0.9535  -17.3580   27.1699 N   0  0  0  0  0  0  0  0  0  0  0  0
   -1.0638  -16.1861   27.8524 C   0  0  0  0  0  0  0  0  0  0  0  0
   -2.3547  -15.9698   27.9344 C   0  0  0  0  0  0  0  0  0  0  0  0
   -2.8975  -17.2203   27.6651 N   0  0  0  0  0  0  0  0  0  0  0  0
   -6.7157  -25.2311   31.1387 C   0  0  0  0  0  0  0  0  0  0  0  0
   -6.3210  -26.0310   30.2134 N   0  0  0  0  0  0  0  0  0  0  0  0
  -12.3391  -23.5637   27.7393 H   0  0  0  0  0  0  0  0  0  0  0  0
  -10.6742  -23.2254   27.5316 H   0  0  0  0  0  0  0  0  0  0  0  0
  -11.8902  -21.9118   27.3707 H   0  0  0  0  0  0  0  0  0  0  0  0
  -10.8715  -21.5748   29.5492 H   0  0  0  0  0  0  0  0  0  0  0  0
  -12.3370  -22.3743   29.9877 H   0  0  0  0  0  0  0  0  0  0  0  0
   -8.9733  -23.7110   33.2119 H   0  0  0  0  0  0  0  0  0  0  0  0
   -6.8128  -23.0284   33.7974 H   0  0  0  0  0  0  0  0  0  0  0  0
   -4.7356  -21.9166   32.5789 H   0  0  0  0  0  0  0  0  0  0  0  0
   -3.7275  -23.1704   32.6003 H   0  0  0  0  0  0  0  0  0  0  0  0
   -2.6197  -20.8091   30.9153 H   0  0  0  0  0  0  0  0  0  0  0  0
   -2.2232  -18.6063   26.0754 H   0  0  0  0  0  0  0  0  0  0  0  0
   -3.3524  -19.6544   26.6057 H   0  0  0  0  0  0  0  0  0  0  0  0
   -1.7567  -19.7920   26.2459 H   0  0  0  0  0  0  0  0  0  0  0  0
   -0.2661  -20.4157   29.4146 H   0  0  0  0  0  0  0  0  0  0  0  0
   -0.4769  -18.6635   29.4175 H   0  0  0  0  0  0  0  0  0  0  0  0
   -1.0931  -19.4194   30.4534 H   0  0  0  0  0  0  0  0  0  0  0  0
   -0.2635  -15.5355   28.1986 H   0  0  0  0  0  0  0  0  0  0  0  0
   -2.8043  -15.1789   28.4698 H   0  0  0  0  0  0  0  0  0  0  0  0
   -3.8618  -17.5030   27.7024 H   0  0  0  0  0  0  0  0  0  0  0  0
   -5.4845  -25.6780   29.7899 H   0  0  0  0  0  0  0  0  0  0  0  0
  1  2  1  0
  2  3  1  0
  3  4  1  0
  4  5  2  0
  4  6  1  0
  6  7  2  0
  7  8  1  0
  8  9  1  0
  9 10  1  0
 10 11  1  0
 11 12  2  0
 11 13  1  0
 13 14  1  0
 14 15  1  0
 14 16  1  0
 14 17  1  0
 17 18  2  0
 18 19  1  0
 19 20  2  0
 20 21  1  0
  9 22  1  0
 22 23  2  3
 22  6  1  0
 21 17  1  0
  1 24  1  0
  1 25  1  0
  1 26  1  0
  2 27  1  0
  2 28  1  0
  7 29  1  0
  8 30  1  0
 10 31  1  0
 10 32  1  0
 13 33  1  0
 15 34  1  0
 15 35  1  0
 15 36  1  0
 16 37  1  0
 16 38  1  0
 16 39  1  0
 19 40  1  0
 20 41  1  0
 21 42  1  0
 23 43  1  0
M  END
>  <Energy>  (248) 
1010.6333082180872

>  <compound_id>  (248) 
60642

>  <target_id>  (248) 
1

>  <reference_id>  (248) 
116

>  <inspiration_ids>  (248) 
[123, 116]

>  <energy_score>  (248) 
902.362336912189

>  <distance_score>  (248) 
3.8177567954126777

>  <path>  (248) 
/opt/xchem-fragalysis-2/maxwin/BulkDock/SCRATCH/511021/C60642-P116/C60642-P116.minimised.mol

>  <scratch_subdir>  (248) 
/opt/xchem-fragalysis-2/maxwin/BulkDock/SCRATCH/511021/C60642-P116

>  <fragmenstein_runtime>  (248) 
26.130127429962158

>  <fragmenstein_outcome>  (248) 
too moved

>  <fragmenstein_mode>  (248) 
expansion

>  <fragmenstein_error>  (248) 


$$$$
C60645-P123
     RDKit          3D

 41 42  0  0  0  0  0  0  0  0999 V2000
  -11.3844  -23.8670   28.8147 C   0  0  0  0  0  0  0  0  0  0  0  0
  -12.3585  -22.7477   29.1371 C   0  0  0  0  0  0  0  0  0  0  0  0
  -12.2392  -22.2054   30.4671 O   0  0  0  0  0  0  0  0  0  0  0  0
  -11.2145  -21.3152   30.7289 C   0  0  0  0  0  0  0  0  0  0  0  0
  -10.6415  -20.8276   29.7808 O   0  0  0  0  0  0  0  0  0  0  0  0
  -10.9561  -21.1161   32.3248 C   0  0  0  0  0  0  0  0  0  0  0  0
   -9.2479  -20.3068   32.9726 C   0  0  0  0  0  0  0  0  0  0  0  0
   -8.3697  -21.1544   32.9993 O   0  0  0  0  0  0  0  0  0  0  0  0
   -9.1685  -18.7930   33.4778 N   0  0  0  0  0  0  0  0  0  0  0  0
   -7.9033  -17.9143   34.0599 C   0  0  0  0  0  0  0  0  0  0  0  0
   -8.0993  -17.7596   35.5710 C   0  0  0  0  0  0  0  0  0  0  0  0
   -7.4285  -16.3967   33.5459 C   0  0  0  0  0  0  0  0  0  0  0  0
   -6.1973  -16.1424   32.4830 C   0  0  0  0  0  0  0  0  0  0  0  0
   -6.2111  -15.0521   31.1253 C   0  0  0  0  0  0  0  0  0  0  0  0
   -5.6138  -15.6965   30.1118 N   0  0  0  0  0  0  0  0  0  0  0  0
   -5.8019  -16.8878   30.5924 C   0  0  0  0  0  0  0  0  0  0  0  0
   -5.8216  -17.1997   31.9044 N   0  0  0  0  0  0  0  0  0  0  0  0
  -10.9944  -22.8994   32.6260 C   0  0  0  0  0  0  0  0  0  0  0  0
  -12.2468  -22.6856   33.4715 C   0  0  0  0  0  0  0  0  0  0  0  0
  -12.2374  -21.1595   33.2717 C   0  0  0  0  0  0  0  0  0  0  0  0
  -11.7401  -24.4409   27.9529 H   0  0  0  0  0  0  0  0  0  0  0  0
  -10.4073  -23.4647   28.5406 H   0  0  0  0  0  0  0  0  0  0  0  0
  -11.2533  -24.5452   29.6618 H   0  0  0  0  0  0  0  0  0  0  0  0
  -13.3597  -23.1833   29.0871 H   0  0  0  0  0  0  0  0  0  0  0  0
  -12.2885  -21.9552   28.3894 H   0  0  0  0  0  0  0  0  0  0  0  0
  -10.0879  -18.3690   33.3990 H   0  0  0  0  0  0  0  0  0  0  0  0
   -7.0779  -18.5927   33.8934 H   0  0  0  0  0  0  0  0  0  0  0  0
   -9.1227  -17.4534   35.8081 H   0  0  0  0  0  0  0  0  0  0  0  0
   -7.8572  -18.6948   36.0748 H   0  0  0  0  0  0  0  0  0  0  0  0
   -7.4338  -17.0173   36.0152 H   0  0  0  0  0  0  0  0  0  0  0  0
   -8.3246  -15.9341   33.1320 H   0  0  0  0  0  0  0  0  0  0  0  0
   -7.1022  -15.8192   34.4122 H   0  0  0  0  0  0  0  0  0  0  0  0
   -6.7895  -14.1311   30.9937 H   0  0  0  0  0  0  0  0  0  0  0  0
   -4.6521  -15.8355   29.8943 H   0  0  0  0  0  0  0  0  0  0  0  0
   -5.8288  -17.5459   29.7294 H   0  0  0  0  0  0  0  0  0  0  0  0
  -11.1805  -23.5691   31.7794 H   0  0  0  0  0  0  0  0  0  0  0  0
  -10.1325  -23.4028   33.0749 H   0  0  0  0  0  0  0  0  0  0  0  0
  -12.1856  -23.0107   34.5117 H   0  0  0  0  0  0  0  0  0  0  0  0
  -13.1342  -23.1718   33.0505 H   0  0  0  0  0  0  0  0  0  0  0  0
  -12.1882  -20.5580   34.1817 H   0  0  0  0  0  0  0  0  0  0  0  0
  -13.1944  -20.9268   32.8061 H   0  0  0  0  0  0  0  0  0  0  0  0
  1  2  1  0
  2  3  1  0
  3  4  1  0
  4  5  2  0
  4  6  1  0
  6  7  1  0
  7  8  2  0
  7  9  1  0
  9 10  1  0
 10 11  1  0
 10 12  1  0
 12 13  1  0
 13 14  2  0
 14 15  1  0
 15 16  1  0
 16 17  2  0
  6 18  1  0
 18 19  1  0
 19 20  1  0
 20  6  1  0
 17 13  1  0
  1 21  1  0
  1 22  1  0
  1 23  1  0
  2 24  1  0
  2 25  1  0
  9 26  1  0
 10 27  1  0
 11 28  1  0
 11 29  1  0
 11 30  1  0
 12 31  1  0
 12 32  1  0
 14 33  1  0
 15 34  1  0
 16 35  1  0
 18 36  1  0
 18 37  1  0
 19 38  1  0
 19 39  1  0
 20 40  1  0
 20 41  1  0
M  END
>  <Energy>  (249) 
240.65452896476651

>  <compound_id>  (249) 
60645

>  <target_id>  (249) 
1

>  <reference_id>  (249) 
123

>  <inspiration_ids>  (249) 
[123, 116]

>  <energy_score>  (249) 
216.88589731396587

>  <distance_score>  (249) 
4.713390171739433

>  <path>  (249) 
/opt/xchem-fragalysis-2/maxwin/BulkDock/SCRATCH/511021/C60645-P123/C60645-P123.minimised.mol

>  <scratch_subdir>  (249) 
/opt/xchem-fragalysis-2/maxwin/BulkDock/SCRATCH/511021/C60645-P123

>  <fragmenstein_runtime>  (249) 
14.943875312805176

>  <fragmenstein_outcome>  (249) 
too moved

>  <fragmenstein_mode>  (249) 
expansion

>  <fragmenstein_error>  (249) 


$$$$
C60645-P116
     RDKit          3D

 41 42  0  0  0  0  0  0  0  0999 V2000
  -11.6732  -22.8233   27.6432 C   0  0  0  0  0  0  0  0  0  0  0  0
  -12.0011  -21.9751   28.8469 C   0  0  0  0  0  0  0  0  0  0  0  0
  -10.8550  -21.6727   29.6217 O   0  0  0  0  0  0  0  0  0  0  0  0
  -11.1382  -21.4511   30.9700 C   0  0  0  0  0  0  0  0  0  0  0  0
  -12.2912  -21.0726   31.1096 O   0  0  0  0  0  0  0  0  0  0  0  0
   -9.6900  -21.9187   32.3955 C   0  0  0  0  0  0  0  0  0  0  0  0
   -8.8745  -20.6460   33.9301 C   0  0  0  0  0  0  0  0  0  0  0  0
   -9.5928  -20.0184   34.6528 O   0  0  0  0  0  0  0  0  0  0  0  0
   -7.3615  -20.6211   33.8560 N   0  0  0  0  0  0  0  0  0  0  0  0
   -6.3577  -19.7624   34.5639 C   0  0  0  0  0  0  0  0  0  0  0  0
   -6.8176  -18.3018   34.4211 C   0  0  0  0  0  0  0  0  0  0  0  0
   -4.8578  -19.9638   34.2552 C   0  0  0  0  0  0  0  0  0  0  0  0
   -3.8727  -18.8028   34.3803 C   0  0  0  0  0  0  0  0  0  0  0  0
   -2.6258  -18.7999   34.9784 C   0  0  0  0  0  0  0  0  0  0  0  0
   -2.0411  -17.6078   34.6524 N   0  0  0  0  0  0  0  0  0  0  0  0
   -2.9404  -16.9055   33.9171 C   0  0  0  0  0  0  0  0  0  0  0  0
   -4.0521  -17.5823   33.7511 N   0  0  0  0  0  0  0  0  0  0  0  0
   -8.9058  -23.5773   33.1558 C   0  0  0  0  0  0  0  0  0  0  0  0
   -9.5773  -24.5875   32.3985 C   0  0  0  0  0  0  0  0  0  0  0  0
  -10.6170  -23.5852   32.2739 C   0  0  0  0  0  0  0  0  0  0  0  0
  -12.4602  -23.5379   27.4002 H   0  0  0  0  0  0  0  0  0  0  0  0
  -11.6314  -22.1669   26.7795 H   0  0  0  0  0  0  0  0  0  0  0  0
  -10.7350  -23.3704   27.7598 H   0  0  0  0  0  0  0  0  0  0  0  0
  -12.6270  -22.5257   29.5163 H   0  0  0  0  0  0  0  0  0  0  0  0
  -12.5375  -21.0725   28.5817 H   0  0  0  0  0  0  0  0  0  0  0  0
   -7.0659  -21.1967   33.0927 H   0  0  0  0  0  0  0  0  0  0  0  0
   -6.5071  -20.0119   35.6232 H   0  0  0  0  0  0  0  0  0  0  0  0
   -6.7483  -17.9600   33.3844 H   0  0  0  0  0  0  0  0  0  0  0  0
   -7.8605  -18.1763   34.7284 H   0  0  0  0  0  0  0  0  0  0  0  0
   -6.2371  -17.6325   35.0618 H   0  0  0  0  0  0  0  0  0  0  0  0
   -4.7560  -20.4403   33.2782 H   0  0  0  0  0  0  0  0  0  0  0  0
   -4.5205  -20.7307   34.9584 H   0  0  0  0  0  0  0  0  0  0  0  0
   -2.1021  -19.5488   35.5487 H   0  0  0  0  0  0  0  0  0  0  0  0
   -1.1174  -17.2938   34.9145 H   0  0  0  0  0  0  0  0  0  0  0  0
   -2.7286  -15.9129   33.5503 H   0  0  0  0  0  0  0  0  0  0  0  0
   -7.9184  -24.1260   33.1342 H   0  0  0  0  0  0  0  0  0  0  0  0
   -8.1538  -23.1245   33.9373 H   0  0  0  0  0  0  0  0  0  0  0  0
   -9.9150  -25.4289   32.9752 H   0  0  0  0  0  0  0  0  0  0  0  0
   -9.0808  -25.0370   31.5512 H   0  0  0  0  0  0  0  0  0  0  0  0
  -11.3543  -24.0794   32.7639 H   0  0  0  0  0  0  0  0  0  0  0  0
  -11.1549  -23.5968   31.3716 H   0  0  0  0  0  0  0  0  0  0  0  0
  1  2  1  0
  2  3  1  0
  3  4  1  0
  4  5  2  0
  4  6  1  0
  6  7  1  0
  7  8  2  0
  7  9  1  0
  9 10  1  0
 10 11  1  0
 10 12  1  0
 12 13  1  0
 13 14  2  0
 14 15  1  0
 15 16  1  0
 16 17  2  0
  6 18  1  0
 18 19  1  0
 19 20  1  0
 20  6  1  0
 17 13  1  0
  1 21  1  0
  1 22  1  0
  1 23  1  0
  2 24  1  0
  2 25  1  0
  9 26  1  0
 10 27  1  0
 11 28  1  0
 11 29  1  0
 11 30  1  0
 12 31  1  0
 12 32  1  0
 14 33  1  0
 15 34  1  0
 16 35  1  0
 18 36  1  0
 18 37  1  0
 19 38  1  0
 19 39  1  0
 20 40  1  0
 20 41  1  0
M  END
>  <Energy>  (250) 
355.65523739487014

>  <compound_id>  (250) 
60645

>  <target_id>  (250) 
1

>  <reference_id>  (250) 
116

>  <inspiration_ids>  (250) 
[123, 116]

>  <energy_score>  (250) 
331.88660574406435

>  <distance_score>  (250) 
5.64531856710135

>  <path>  (250) 
/opt/xchem-fragalysis-2/maxwin/BulkDock/SCRATCH/511021/C60645-P116/C60645-P116.minimised.mol

>  <scratch_subdir>  (250) 
/opt/xchem-fragalysis-2/maxwin/BulkDock/SCRATCH/511021/C60645-P116

>  <fragmenstein_runtime>  (250) 
20.11755919456482

>  <fragmenstein_outcome>  (250) 
too moved

>  <fragmenstein_mode>  (250) 
expansion

>  <fragmenstein_error>  (250) 


$$$$
C60647-P123
     RDKit          3D

 38 39  0  0  0  0  0  0  0  0999 V2000
  -11.5820  -23.2897   29.0669 C   0  0  0  0  0  0  0  0  0  0  0  0
  -11.2880  -21.8160   28.8017 C   0  0  0  0  0  0  0  0  0  0  0  0
  -10.3349  -21.1086   29.6928 O   0  0  0  0  0  0  0  0  0  0  0  0
  -10.7734  -20.8932   30.9524 C   0  0  0  0  0  0  0  0  0  0  0  0
  -11.9938  -21.0728   31.0060 O   0  0  0  0  0  0  0  0  0  0  0  0
   -9.6771  -20.5114   32.5868 C   0  0  0  0  0  0  0  0  0  0  0  0
   -8.0920  -19.4477   33.4936 C   0  0  0  0  0  0  0  0  0  0  0  0
   -6.3224  -18.8595   32.5181 C   0  0  0  0  0  0  0  0  0  0  0  0
   -5.4060  -19.6453   32.3975 O   0  0  0  0  0  0  0  0  0  0  0  0
   -6.5078  -17.5025   31.9565 N   0  0  0  0  0  0  0  0  0  0  0  0
   -5.4482  -16.4681   30.6547 C   0  0  0  0  0  0  0  0  0  0  0  0
   -3.8219  -16.1729   29.5148 C   0  0  0  0  0  0  0  0  0  0  0  0
   -2.8530  -15.1731   29.5018 N   0  0  0  0  0  0  0  0  0  0  0  0
   -2.0903  -15.1888   28.0808 C   0  0  0  0  0  0  0  0  0  0  0  0
   -2.3646  -16.3512   27.3953 C   0  0  0  0  0  0  0  0  0  0  0  0
   -3.5616  -16.5700   28.0324 N   0  0  0  0  0  0  0  0  0  0  0  0
  -10.3927  -22.4185   32.4164 C   0  0  0  0  0  0  0  0  0  0  0  0
  -11.7788  -21.9946   33.1684 C   0  0  0  0  0  0  0  0  0  0  0  0
  -11.3724  -20.4527   33.4086 C   0  0  0  0  0  0  0  0  0  0  0  0
  -12.0929  -23.4404   30.0206 H   0  0  0  0  0  0  0  0  0  0  0  0
  -10.6728  -23.8954   29.0657 H   0  0  0  0  0  0  0  0  0  0  0  0
  -12.2408  -23.6794   28.2833 H   0  0  0  0  0  0  0  0  0  0  0  0
  -12.2249  -21.2576   28.7679 H   0  0  0  0  0  0  0  0  0  0  0  0
  -10.8682  -21.7805   27.8038 H   0  0  0  0  0  0  0  0  0  0  0  0
   -8.5480  -18.5236   33.8623 H   0  0  0  0  0  0  0  0  0  0  0  0
   -7.7885  -20.1410   34.2465 H   0  0  0  0  0  0  0  0  0  0  0  0
   -7.3434  -17.1111   32.3341 H   0  0  0  0  0  0  0  0  0  0  0  0
   -5.8952  -15.4692   30.5650 H   0  0  0  0  0  0  0  0  0  0  0  0
   -5.7722  -17.0071   29.7548 H   0  0  0  0  0  0  0  0  0  0  0  0
   -1.1231  -14.8075   28.0039 H   0  0  0  0  0  0  0  0  0  0  0  0
   -2.0550  -17.1330   26.7193 H   0  0  0  0  0  0  0  0  0  0  0  0
   -4.0665  -17.2383   27.4585 H   0  0  0  0  0  0  0  0  0  0  0  0
  -10.6272  -22.9486   31.4898 H   0  0  0  0  0  0  0  0  0  0  0  0
   -9.8046  -23.2294   32.8990 H   0  0  0  0  0  0  0  0  0  0  0  0
  -12.7219  -22.1748   32.6356 H   0  0  0  0  0  0  0  0  0  0  0  0
  -11.9710  -22.5660   34.0890 H   0  0  0  0  0  0  0  0  0  0  0  0
  -11.9213  -19.7103   32.9303 H   0  0  0  0  0  0  0  0  0  0  0  0
  -11.6810  -20.1250   34.4074 H   0  0  0  0  0  0  0  0  0  0  0  0
  1  2  1  0
  2  3  1  0
  3  4  1  0
  4  5  2  0
  4  6  1  0
  6  7  1  0
  7  8  1  0
  8  9  2  0
  8 10  1  0
 10 11  1  0
 11 12  1  0
 12 13  2  0
 13 14  1  0
 14 15  2  0
 15 16  1  0
  6 17  1  0
 17 18  1  0
 18 19  1  0
 19  6  1  0
 16 12  1  0
  1 20  1  0
  1 21  1  0
  1 22  1  0
  2 23  1  0
  2 24  1  0
  7 25  1  0
  7 26  1  0
 10 27  1  0
 11 28  1  0
 11 29  1  0
 14 30  1  0
 15 31  1  0
 16 32  1  0
 17 33  1  0
 17 34  1  0
 18 35  1  0
 18 36  1  0
 19 37  1  0
 19 38  1  0
M  END
>  <Energy>  (251) 
667.91220162822674

>  <compound_id>  (251) 
60647

>  <target_id>  (251) 
1

>  <reference_id>  (251) 
123

>  <inspiration_ids>  (251) 
[123, 116]

>  <energy_score>  (251) 
649.9673449542645

>  <distance_score>  (251) 
3.3135692250477033

>  <path>  (251) 
/opt/xchem-fragalysis-2/maxwin/BulkDock/SCRATCH/511021/C60647-P123/C60647-P123.minimised.mol

>  <scratch_subdir>  (251) 
/opt/xchem-fragalysis-2/maxwin/BulkDock/SCRATCH/511021/C60647-P123

>  <fragmenstein_runtime>  (251) 
28.11889910697937

>  <fragmenstein_outcome>  (251) 
too moved

>  <fragmenstein_mode>  (251) 
expansion

>  <fragmenstein_error>  (251) 


$$$$
C60647-P116
     RDKit          3D

 38 39  0  0  0  0  0  0  0  0999 V2000
  -13.4537  -22.9798   24.7209 C   0  0  0  0  0  0  0  0  0  0  0  0
  -12.6964  -21.7014   24.3622 C   0  0  0  0  0  0  0  0  0  0  0  0
  -11.9062  -20.9732   25.3810 O   0  0  0  0  0  0  0  0  0  0  0  0
  -11.6198  -21.4144   26.7152 C   0  0  0  0  0  0  0  0  0  0  0  0
  -12.5025  -22.1847   27.1028 O   0  0  0  0  0  0  0  0  0  0  0  0
   -9.8609  -20.8515   27.7148 C   0  0  0  0  0  0  0  0  0  0  0  0
   -8.9318  -18.9859   28.1389 C   0  0  0  0  0  0  0  0  0  0  0  0
   -7.5225  -17.5809   28.0878 C   0  0  0  0  0  0  0  0  0  0  0  0
   -7.9325  -16.4303   28.1181 O   0  0  0  0  0  0  0  0  0  0  0  0
   -5.7786  -18.1696   27.8886 N   0  0  0  0  0  0  0  0  0  0  0  0
   -4.0287  -17.1620   27.8037 C   0  0  0  0  0  0  0  0  0  0  0  0
   -2.6997  -15.7547   28.1229 C   0  0  0  0  0  0  0  0  0  0  0  0
   -1.9883  -15.3523   29.2004 N   0  0  0  0  0  0  0  0  0  0  0  0
   -1.1502  -14.2932   28.9659 C   0  0  0  0  0  0  0  0  0  0  0  0
   -1.4284  -13.8102   27.7406 C   0  0  0  0  0  0  0  0  0  0  0  0
   -2.2034  -14.8096   27.1767 N   0  0  0  0  0  0  0  0  0  0  0  0
   -9.1610  -22.6949   27.9837 C   0  0  0  0  0  0  0  0  0  0  0  0
  -10.5913  -23.0609   28.4257 C   0  0  0  0  0  0  0  0  0  0  0  0
  -10.9847  -21.6300   29.0342 C   0  0  0  0  0  0  0  0  0  0  0  0
  -13.7384  -23.4826   23.7966 H   0  0  0  0  0  0  0  0  0  0  0  0
  -14.4145  -22.8365   25.2103 H   0  0  0  0  0  0  0  0  0  0  0  0
  -12.8787  -23.6464   25.3649 H   0  0  0  0  0  0  0  0  0  0  0  0
  -13.3762  -20.9744   23.9033 H   0  0  0  0  0  0  0  0  0  0  0  0
  -11.9771  -21.9463   23.5715 H   0  0  0  0  0  0  0  0  0  0  0  0
   -9.5678  -18.2688   27.6633 H   0  0  0  0  0  0  0  0  0  0  0  0
   -8.4455  -19.1221   29.0514 H   0  0  0  0  0  0  0  0  0  0  0  0
   -5.7608  -19.1539   27.8179 H   0  0  0  0  0  0  0  0  0  0  0  0
   -3.4860  -17.2109   26.8431 H   0  0  0  0  0  0  0  0  0  0  0  0
   -3.4102  -17.9986   27.9891 H   0  0  0  0  0  0  0  0  0  0  0  0
   -0.4815  -13.9042   29.7218 H   0  0  0  0  0  0  0  0  0  0  0  0
   -1.0852  -12.9561   27.1714 H   0  0  0  0  0  0  0  0  0  0  0  0
   -2.5058  -14.7262   26.2266 H   0  0  0  0  0  0  0  0  0  0  0  0
   -8.9762  -23.4529   27.1899 H   0  0  0  0  0  0  0  0  0  0  0  0
   -8.1306  -22.7337   28.3431 H   0  0  0  0  0  0  0  0  0  0  0  0
  -10.6406  -23.9213   29.0493 H   0  0  0  0  0  0  0  0  0  0  0  0
  -11.1048  -23.5145   27.5712 H   0  0  0  0  0  0  0  0  0  0  0  0
  -10.8454  -21.4049   30.0836 H   0  0  0  0  0  0  0  0  0  0  0  0
  -12.0557  -21.3781   29.0131 H   0  0  0  0  0  0  0  0  0  0  0  0
  1  2  1  0
  2  3  1  0
  3  4  1  0
  4  5  2  0
  4  6  1  0
  6  7  1  0
  7  8  1  0
  8  9  2  0
  8 10  1  0
 10 11  1  0
 11 12  1  0
 12 13  2  0
 13 14  1  0
 14 15  2  0
 15 16  1  0
  6 17  1  0
 17 18  1  0
 18 19  1  0
 19  6  1  0
 16 12  1  0
  1 20  1  0
  1 21  1  0
  1 22  1  0
  2 23  1  0
  2 24  1  0
  7 25  1  0
  7 26  1  0
 10 27  1  0
 11 28  1  0
 11 29  1  0
 14 30  1  0
 15 31  1  0
 16 32  1  0
 17 33  1  0
 17 34  1  0
 18 35  1  0
 18 36  1  0
 19 37  1  0
 19 38  1  0
M  END
>  <Energy>  (252) 
705.04772266397333

>  <compound_id>  (252) 
60647

>  <target_id>  (252) 
1

>  <reference_id>  (252) 
116

>  <inspiration_ids>  (252) 
[123, 116]

>  <energy_score>  (252) 
687.102865990024

>  <distance_score>  (252) 
4.048805077870832

>  <path>  (252) 
/opt/xchem-fragalysis-2/maxwin/BulkDock/SCRATCH/511021/C60647-P116/C60647-P116.minimised.mol

>  <scratch_subdir>  (252) 
/opt/xchem-fragalysis-2/maxwin/BulkDock/SCRATCH/511021/C60647-P116

>  <fragmenstein_runtime>  (252) 
14.728653907775879

>  <fragmenstein_outcome>  (252) 
too moved

>  <fragmenstein_mode>  (252) 
expansion

>  <fragmenstein_error>  (252) 


$$$$
C60648-P123
     RDKit          3D

 41 42  0  0  0  0  0  0  0  0999 V2000
  -11.4983  -24.3947   27.9627 C   0  0  0  0  0  0  0  0  0  0  0  0
  -11.8522  -23.0298   28.5227 C   0  0  0  0  0  0  0  0  0  0  0  0
  -11.0654  -22.8119   29.7025 O   0  0  0  0  0  0  0  0  0  0  0  0
  -10.9167  -21.5046   30.1492 C   0  0  0  0  0  0  0  0  0  0  0  0
  -11.5371  -20.6608   29.5378 O   0  0  0  0  0  0  0  0  0  0  0  0
   -9.8541  -21.3217   31.7348 C   0  0  0  0  0  0  0  0  0  0  0  0
   -7.7704  -21.0620   31.7493 C   0  0  0  0  0  0  0  0  0  0  0  0
   -6.9954  -19.5377   30.1515 C   0  0  0  0  0  0  0  0  0  0  0  0
   -6.5326  -18.5427   30.5305 O   0  0  0  0  0  0  0  0  0  0  0  0
   -7.0752  -20.4426   28.1836 N   0  0  0  0  0  0  0  0  0  0  0  0
   -5.8422  -21.5805   27.6048 C   0  0  0  0  0  0  0  0  0  0  0  0
   -6.1403  -19.6774   26.7252 C   0  0  0  0  0  0  0  0  0  0  0  0
   -4.6697  -18.5220   27.5390 C   0  0  0  0  0  0  0  0  0  0  0  0
   -3.9410  -17.1070   27.4153 N   0  0  0  0  0  0  0  0  0  0  0  0
   -2.5540  -16.8872   27.1665 C   0  0  0  0  0  0  0  0  0  0  0  0
   -1.9447  -17.9398   26.6719 C   0  0  0  0  0  0  0  0  0  0  0  0
   -2.8803  -18.9008   26.9524 N   0  0  0  0  0  0  0  0  0  0  0  0
  -10.2485  -23.0329   32.3022 C   0  0  0  0  0  0  0  0  0  0  0  0
  -11.6319  -22.5508   32.7570 C   0  0  0  0  0  0  0  0  0  0  0  0
  -11.2684  -21.0392   32.6105 C   0  0  0  0  0  0  0  0  0  0  0  0
  -10.4354  -24.4394   27.7067 H   0  0  0  0  0  0  0  0  0  0  0  0
  -11.6799  -25.1764   28.7077 H   0  0  0  0  0  0  0  0  0  0  0  0
  -12.0874  -24.6139   27.0678 H   0  0  0  0  0  0  0  0  0  0  0  0
  -11.6514  -22.2657   27.7661 H   0  0  0  0  0  0  0  0  0  0  0  0
  -12.9067  -23.0162   28.8059 H   0  0  0  0  0  0  0  0  0  0  0  0
   -7.0153  -21.8097   32.0077 H   0  0  0  0  0  0  0  0  0  0  0  0
   -7.8042  -20.8586   32.9227 H   0  0  0  0  0  0  0  0  0  0  0  0
   -5.5141  -21.9866   26.6314 H   0  0  0  0  0  0  0  0  0  0  0  0
   -6.5491  -22.4368   27.7165 H   0  0  0  0  0  0  0  0  0  0  0  0
   -5.0836  -21.9402   28.1947 H   0  0  0  0  0  0  0  0  0  0  0  0
   -5.3784  -20.3096   26.2386 H   0  0  0  0  0  0  0  0  0  0  0  0
   -6.2675  -19.3599   25.7503 H   0  0  0  0  0  0  0  0  0  0  0  0
   -2.1394  -15.8974   27.3593 H   0  0  0  0  0  0  0  0  0  0  0  0
   -0.9441  -18.1944   26.3807 H   0  0  0  0  0  0  0  0  0  0  0  0
   -2.9654  -19.4629   26.1539 H   0  0  0  0  0  0  0  0  0  0  0  0
  -10.3111  -23.8390   31.5627 H   0  0  0  0  0  0  0  0  0  0  0  0
   -9.5653  -23.4535   33.0469 H   0  0  0  0  0  0  0  0  0  0  0  0
  -12.4332  -22.8689   32.0763 H   0  0  0  0  0  0  0  0  0  0  0  0
  -11.9517  -22.8753   33.7521 H   0  0  0  0  0  0  0  0  0  0  0  0
  -11.2909  -20.3397   33.4407 H   0  0  0  0  0  0  0  0  0  0  0  0
  -12.0995  -20.7098   32.0234 H   0  0  0  0  0  0  0  0  0  0  0  0
  1  2  1  0
  2  3  1  0
  3  4  1  0
  4  5  2  0
  4  6  1  0
  6  7  1  0
  7  8  1  0
  8  9  2  0
  8 10  1  0
 10 11  1  0
 10 12  1  0
 12 13  1  0
 13 14  2  0
 14 15  1  0
 15 16  2  0
 16 17  1  0
  6 18  1  0
 18 19  1  0
 19 20  1  0
 20  6  1  0
 17 13  1  0
  1 21  1  0
  1 22  1  0
  1 23  1  0
  2 24  1  0
  2 25  1  0
  7 26  1  0
  7 27  1  0
 11 28  1  0
 11 29  1  0
 11 30  1  0
 12 31  1  0
 12 32  1  0
 15 33  1  0
 16 34  1  0
 17 35  1  0
 18 36  1  0
 18 37  1  0
 19 38  1  0
 19 39  1  0
 20 40  1  0
 20 41  1  0
M  END
>  <Energy>  (253) 
1105.7727256104131

>  <compound_id>  (253) 
60648

>  <target_id>  (253) 
1

>  <reference_id>  (253) 
123

>  <inspiration_ids>  (253) 
[123, 116]

>  <energy_score>  (253) 
1077.8038897234899

>  <distance_score>  (253) 
3.863962281960386

>  <path>  (253) 
/opt/xchem-fragalysis-2/maxwin/BulkDock/SCRATCH/511021/C60648-P123/C60648-P123.minimised.mol

>  <scratch_subdir>  (253) 
/opt/xchem-fragalysis-2/maxwin/BulkDock/SCRATCH/511021/C60648-P123

>  <fragmenstein_runtime>  (253) 
20.52187466621399

>  <fragmenstein_outcome>  (253) 
too moved

>  <fragmenstein_mode>  (253) 
expansion

>  <fragmenstein_error>  (253) 


$$$$
C60648-P116
     RDKit          3D

 41 42  0  0  0  0  0  0  0  0999 V2000
  -11.5979  -27.7923   27.3284 C   0  0  0  0  0  0  0  0  0  0  0  0
  -11.4829  -26.4412   26.6749 C   0  0  0  0  0  0  0  0  0  0  0  0
  -10.7200  -25.5522   27.5127 O   0  0  0  0  0  0  0  0  0  0  0  0
  -10.0752  -24.5734   26.8188 C   0  0  0  0  0  0  0  0  0  0  0  0
   -9.9255  -24.7041   25.6083 O   0  0  0  0  0  0  0  0  0  0  0  0
   -9.6562  -23.2160   27.7108 C   0  0  0  0  0  0  0  0  0  0  0  0
   -7.8631  -22.5255   27.1729 C   0  0  0  0  0  0  0  0  0  0  0  0
   -6.2873  -21.7278   27.5887 C   0  0  0  0  0  0  0  0  0  0  0  0
   -5.6584  -22.4337   28.3481 O   0  0  0  0  0  0  0  0  0  0  0  0
   -5.8733  -20.0073   27.0240 N   0  0  0  0  0  0  0  0  0  0  0  0
   -4.9969  -20.1012   25.6309 C   0  0  0  0  0  0  0  0  0  0  0  0
   -4.3334  -18.7444   27.6867 C   0  0  0  0  0  0  0  0  0  0  0  0
   -2.6742  -18.0816   27.0282 C   0  0  0  0  0  0  0  0  0  0  0  0
   -1.6257  -17.8257   27.7756 N   0  0  0  0  0  0  0  0  0  0  0  0
   -1.3767  -16.4748   27.8407 C   0  0  0  0  0  0  0  0  0  0  0  0
   -2.1461  -15.9106   26.9518 C   0  0  0  0  0  0  0  0  0  0  0  0
   -2.5126  -16.9947   26.1791 N   0  0  0  0  0  0  0  0  0  0  0  0
  -10.7856  -22.4942   28.8151 C   0  0  0  0  0  0  0  0  0  0  0  0
  -12.0152  -22.7752   28.0731 C   0  0  0  0  0  0  0  0  0  0  0  0
  -11.2811  -22.5556   26.8669 C   0  0  0  0  0  0  0  0  0  0  0  0
  -12.3104  -28.4033   26.7726 H   0  0  0  0  0  0  0  0  0  0  0  0
  -10.6317  -28.3015   27.3565 H   0  0  0  0  0  0  0  0  0  0  0  0
  -11.9318  -27.7332   28.3603 H   0  0  0  0  0  0  0  0  0  0  0  0
  -11.0490  -26.5960   25.6866 H   0  0  0  0  0  0  0  0  0  0  0  0
  -12.4765  -26.0059   26.5206 H   0  0  0  0  0  0  0  0  0  0  0  0
   -8.1721  -21.4937   27.3273 H   0  0  0  0  0  0  0  0  0  0  0  0
   -7.6439  -22.9838   26.2245 H   0  0  0  0  0  0  0  0  0  0  0  0
   -4.0426  -19.8019   25.2607 H   0  0  0  0  0  0  0  0  0  0  0  0
   -5.6247  -19.4432   25.0918 H   0  0  0  0  0  0  0  0  0  0  0  0
   -5.0741  -21.1223   25.2808 H   0  0  0  0  0  0  0  0  0  0  0  0
   -5.3261  -18.2148   27.6857 H   0  0  0  0  0  0  0  0  0  0  0  0
   -4.3050  -17.5976   27.8629 H   0  0  0  0  0  0  0  0  0  0  0  0
   -0.7251  -15.9405   28.5238 H   0  0  0  0  0  0  0  0  0  0  0  0
   -2.2845  -14.8597   26.7011 H   0  0  0  0  0  0  0  0  0  0  0  0
   -3.0261  -16.8339   25.3422 H   0  0  0  0  0  0  0  0  0  0  0  0
  -10.9733  -22.8733   29.7870 H   0  0  0  0  0  0  0  0  0  0  0  0
  -10.7750  -21.4160   28.9537 H   0  0  0  0  0  0  0  0  0  0  0  0
  -12.7467  -21.9882   28.2334 H   0  0  0  0  0  0  0  0  0  0  0  0
  -12.4237  -23.7592   28.0311 H   0  0  0  0  0  0  0  0  0  0  0  0
  -11.4089  -21.4955   26.6591 H   0  0  0  0  0  0  0  0  0  0  0  0
  -11.7383  -23.1171   26.0369 H   0  0  0  0  0  0  0  0  0  0  0  0
  1  2  1  0
  2  3  1  0
  3  4  1  0
  4  5  2  0
  4  6  1  0
  6  7  1  0
  7  8  1  0
  8  9  2  0
  8 10  1  0
 10 11  1  0
 10 12  1  0
 12 13  1  0
 13 14  2  0
 14 15  1  0
 15 16  2  0
 16 17  1  0
  6 18  1  0
 18 19  1  0
 19 20  1  0
 20  6  1  0
 17 13  1  0
  1 21  1  0
  1 22  1  0
  1 23  1  0
  2 24  1  0
  2 25  1  0
  7 26  1  0
  7 27  1  0
 11 28  1  0
 11 29  1  0
 11 30  1  0
 12 31  1  0
 12 32  1  0
 15 33  1  0
 16 34  1  0
 17 35  1  0
 18 36  1  0
 18 37  1  0
 19 38  1  0
 19 39  1  0
 20 40  1  0
 20 41  1  0
M  END
>  <Energy>  (254) 
644.14485936335609

>  <compound_id>  (254) 
60648

>  <target_id>  (254) 
1

>  <reference_id>  (254) 
116

>  <inspiration_ids>  (254) 
[123, 116]

>  <energy_score>  (254) 
616.1760234764317

>  <distance_score>  (254) 
4.488802454017172

>  <path>  (254) 
/opt/xchem-fragalysis-2/maxwin/BulkDock/SCRATCH/511021/C60648-P116/C60648-P116.minimised.mol

>  <scratch_subdir>  (254) 
/opt/xchem-fragalysis-2/maxwin/BulkDock/SCRATCH/511021/C60648-P116

>  <fragmenstein_runtime>  (254) 
20.320992708206177

>  <fragmenstein_outcome>  (254) 
too moved

>  <fragmenstein_mode>  (254) 
expansion

>  <fragmenstein_error>  (254) 


$$$$
C60649-P123
     RDKit          3D

 34 36  0  0  0  0  0  0  0  0999 V2000
  -10.3371  -25.5299   28.9944 C   0  0  0  0  0  0  0  0  0  0  0  0
  -10.6678  -24.4374   28.0008 C   0  0  0  0  0  0  0  0  0  0  0  0
   -9.9302  -23.2473   28.3462 O   0  0  0  0  0  0  0  0  0  0  0  0
  -10.5655  -22.0875   27.9627 C   0  0  0  0  0  0  0  0  0  0  0  0
  -11.3877  -22.1889   27.0452 O   0  0  0  0  0  0  0  0  0  0  0  0
  -10.1423  -20.5780   29.0132 C   0  0  0  0  0  0  0  0  0  0  0  0
   -9.1003  -18.7632   28.0604 C   0  0  0  0  0  0  0  0  0  0  0  0
   -9.6431  -17.6355   27.0247 C   0  0  0  0  0  0  0  0  0  0  0  0
   -9.1228  -16.1805   26.3648 S   0  0  0  0  0  0  0  0  0  0  0  0
   -8.1295  -16.1886   27.7053 C   0  0  0  0  0  0  0  0  0  0  0  0
   -7.9772  -14.5379   28.1122 C   0  0  0  0  0  0  0  0  0  0  0  0
   -7.0891  -13.9237   28.8815 N   0  0  0  0  0  0  0  0  0  0  0  0
   -7.7916  -13.0204   29.6366 C   0  0  0  0  0  0  0  0  0  0  0  0
   -9.0335  -12.8415   29.0843 C   0  0  0  0  0  0  0  0  0  0  0  0
   -8.9858  -13.5859   27.9220 N   0  0  0  0  0  0  0  0  0  0  0  0
   -8.0092  -17.5241   28.3169 N   0  0  0  0  0  0  0  0  0  0  0  0
  -12.0034  -20.7577   29.1809 C   0  0  0  0  0  0  0  0  0  0  0  0
  -11.8644  -21.6788   30.3762 C   0  0  0  0  0  0  0  0  0  0  0  0
  -10.5872  -21.0034   30.7891 C   0  0  0  0  0  0  0  0  0  0  0  0
  -10.8736  -26.4512   28.7523 H   0  0  0  0  0  0  0  0  0  0  0  0
   -9.2656  -25.7379   29.0092 H   0  0  0  0  0  0  0  0  0  0  0  0
  -10.6107  -25.2213   30.0090 H   0  0  0  0  0  0  0  0  0  0  0  0
  -11.7502  -24.2632   28.0454 H   0  0  0  0  0  0  0  0  0  0  0  0
  -10.4013  -24.7390   26.9858 H   0  0  0  0  0  0  0  0  0  0  0  0
  -10.6424  -17.3467   27.1415 H   0  0  0  0  0  0  0  0  0  0  0  0
   -7.3468  -12.5428   30.5001 H   0  0  0  0  0  0  0  0  0  0  0  0
   -9.8764  -12.2149   29.3344 H   0  0  0  0  0  0  0  0  0  0  0  0
   -9.7748  -13.7126   27.3147 H   0  0  0  0  0  0  0  0  0  0  0  0
  -12.5583  -21.3578   28.4729 H   0  0  0  0  0  0  0  0  0  0  0  0
  -12.6184  -19.8807   29.1947 H   0  0  0  0  0  0  0  0  0  0  0  0
  -12.6582  -21.6931   31.1274 H   0  0  0  0  0  0  0  0  0  0  0  0
  -11.7388  -22.7372   30.1184 H   0  0  0  0  0  0  0  0  0  0  0  0
  -10.6605  -20.2860   31.5997 H   0  0  0  0  0  0  0  0  0  0  0  0
  -10.1933  -21.7970   31.4089 H   0  0  0  0  0  0  0  0  0  0  0  0
  1  2  1  0
  2  3  1  0
  3  4  1  0
  4  5  2  0
  4  6  1  0
  6  7  1  0
  7  8  2  0
  8  9  1  0
  9 10  1  0
 10 11  1  0
 11 12  2  0
 12 13  1  0
 13 14  2  0
 14 15  1  0
 10 16  2  0
  6 17  1  0
 17 18  1  0
 18 19  1  0
 19  6  1  0
 16  7  1  0
 15 11  1  0
  1 20  1  0
  1 21  1  0
  1 22  1  0
  2 23  1  0
  2 24  1  0
  8 25  1  0
 13 26  1  0
 14 27  1  0
 15 28  1  0
 17 29  1  0
 17 30  1  0
 18 31  1  0
 18 32  1  0
 19 33  1  0
 19 34  1  0
M  END
>  <Energy>  (255) 
532.51019410964182

>  <compound_id>  (255) 
60649

>  <target_id>  (255) 
1

>  <reference_id>  (255) 
123

>  <inspiration_ids>  (255) 
[123, 116]

>  <energy_score>  (255) 
418.64412066676215

>  <distance_score>  (255) 
5.472621110409498

>  <path>  (255) 
/opt/xchem-fragalysis-2/maxwin/BulkDock/SCRATCH/511021/C60649-P123/C60649-P123.minimised.mol

>  <scratch_subdir>  (255) 
/opt/xchem-fragalysis-2/maxwin/BulkDock/SCRATCH/511021/C60649-P123

>  <fragmenstein_runtime>  (255) 
11.434214353561401

>  <fragmenstein_outcome>  (255) 
too moved

>  <fragmenstein_mode>  (255) 
expansion

>  <fragmenstein_error>  (255) 


$$$$
C60649-P116
     RDKit          3D

 34 36  0  0  0  0  0  0  0  0999 V2000
  -13.4621  -23.0040   24.7432 C   0  0  0  0  0  0  0  0  0  0  0  0
  -12.6988  -21.7291   24.3747 C   0  0  0  0  0  0  0  0  0  0  0  0
  -11.9174  -20.9810   25.3922 O   0  0  0  0  0  0  0  0  0  0  0  0
  -11.6149  -21.4117   26.7265 C   0  0  0  0  0  0  0  0  0  0  0  0
  -12.4892  -22.1860   27.1283 O   0  0  0  0  0  0  0  0  0  0  0  0
   -9.8510  -20.8315   27.6992 C   0  0  0  0  0  0  0  0  0  0  0  0
   -8.8396  -18.8902   28.1965 C   0  0  0  0  0  0  0  0  0  0  0  0
   -9.0945  -17.7206   27.5105 C   0  0  0  0  0  0  0  0  0  0  0  0
   -8.0708  -16.4030   27.9072 S   0  0  0  0  0  0  0  0  0  0  0  0
   -6.2405  -17.2113   29.0293 C   0  0  0  0  0  0  0  0  0  0  0  0
   -4.3927  -16.7669   28.4677 C   0  0  0  0  0  0  0  0  0  0  0  0
   -3.3771  -15.6897   28.5159 N   0  0  0  0  0  0  0  0  0  0  0  0
   -2.1602  -15.8706   27.8770 C   0  0  0  0  0  0  0  0  0  0  0  0
   -2.2722  -17.0508   27.2354 C   0  0  0  0  0  0  0  0  0  0  0  0
   -3.4797  -17.5812   27.6840 N   0  0  0  0  0  0  0  0  0  0  0  0
   -7.2106  -18.0075   28.2389 N   0  0  0  0  0  0  0  0  0  0  0  0
   -9.0308  -22.6183   27.9885 C   0  0  0  0  0  0  0  0  0  0  0  0
  -10.5006  -23.0405   28.3855 C   0  0  0  0  0  0  0  0  0  0  0  0
  -10.9380  -21.6045   29.0369 C   0  0  0  0  0  0  0  0  0  0  0  0
  -12.8823  -23.6698   25.3843 H   0  0  0  0  0  0  0  0  0  0  0  0
  -14.4125  -22.8512   25.2486 H   0  0  0  0  0  0  0  0  0  0  0  0
  -13.7689  -23.5129   23.8248 H   0  0  0  0  0  0  0  0  0  0  0  0
  -13.3782  -21.0091   23.9044 H   0  0  0  0  0  0  0  0  0  0  0  0
  -11.9745  -21.9811   23.5913 H   0  0  0  0  0  0  0  0  0  0  0  0
   -9.8751  -17.3661   26.8509 H   0  0  0  0  0  0  0  0  0  0  0  0
   -1.3961  -15.1175   27.9808 H   0  0  0  0  0  0  0  0  0  0  0  0
   -1.6378  -17.6015   26.5663 H   0  0  0  0  0  0  0  0  0  0  0  0
   -3.7713  -18.4920   27.3975 H   0  0  0  0  0  0  0  0  0  0  0  0
   -8.0179  -22.6655   28.3823 H   0  0  0  0  0  0  0  0  0  0  0  0
   -8.7912  -23.3596   27.1946 H   0  0  0  0  0  0  0  0  0  0  0  0
  -10.9709  -23.4607   27.4884 H   0  0  0  0  0  0  0  0  0  0  0  0
  -10.6079  -23.9262   28.9761 H   0  0  0  0  0  0  0  0  0  0  0  0
  -12.0163  -21.3862   29.0181 H   0  0  0  0  0  0  0  0  0  0  0  0
  -10.8141  -21.3801   30.0875 H   0  0  0  0  0  0  0  0  0  0  0  0
  1  2  1  0
  2  3  1  0
  3  4  1  0
  4  5  2  0
  4  6  1  0
  6  7  1  0
  7  8  2  0
  8  9  1  0
  9 10  1  0
 10 11  1  0
 11 12  2  0
 12 13  1  0
 13 14  2  0
 14 15  1  0
 10 16  2  0
  6 17  1  0
 17 18  1  0
 18 19  1  0
 19  6  1  0
 16  7  1  0
 15 11  1  0
  1 20  1  0
  1 21  1  0
  1 22  1  0
  2 23  1  0
  2 24  1  0
  8 25  1  0
 13 26  1  0
 14 27  1  0
 15 28  1  0
 17 29  1  0
 17 30  1  0
 18 31  1  0
 18 32  1  0
 19 33  1  0
 19 34  1  0
M  END
>  <Energy>  (256) 
795.16651207041718

>  <compound_id>  (256) 
60649

>  <target_id>  (256) 
1

>  <reference_id>  (256) 
116

>  <inspiration_ids>  (256) 
[123, 116]

>  <energy_score>  (256) 
681.3004386275388

>  <distance_score>  (256) 
4.7450962113223705

>  <path>  (256) 
/opt/xchem-fragalysis-2/maxwin/BulkDock/SCRATCH/511021/C60649-P116/C60649-P116.minimised.mol

>  <scratch_subdir>  (256) 
/opt/xchem-fragalysis-2/maxwin/BulkDock/SCRATCH/511021/C60649-P116

>  <fragmenstein_runtime>  (256) 
10.21792221069336

>  <fragmenstein_outcome>  (256) 
too moved

>  <fragmenstein_mode>  (256) 
expansion

>  <fragmenstein_error>  (256) 


$$$$
C60650-P123
     RDKit          3D

 34 36  0  0  0  0  0  0  0  0999 V2000
   -7.0579  -17.3469   37.4444 C   0  0  0  0  0  0  0  0  0  0  0  0
   -6.8383  -15.8884   37.0501 C   0  0  0  0  0  0  0  0  0  0  0  0
   -7.3211  -15.7936   35.7091 O   0  0  0  0  0  0  0  0  0  0  0  0
   -6.7783  -14.9323   34.7830 C   0  0  0  0  0  0  0  0  0  0  0  0
   -6.0583  -14.0206   35.1680 O   0  0  0  0  0  0  0  0  0  0  0  0
   -7.4494  -15.3597   32.9720 C   0  0  0  0  0  0  0  0  0  0  0  0
   -7.0454  -13.9741   31.3357 C   0  0  0  0  0  0  0  0  0  0  0  0
   -6.7191  -12.5516   31.7514 C   0  0  0  0  0  0  0  0  0  0  0  0
   -5.0114  -12.0160   30.6260 S   0  0  0  0  0  0  0  0  0  0  0  0
   -5.7299  -12.3370   29.1261 C   0  0  0  0  0  0  0  0  0  0  0  0
   -5.6044  -11.2642   27.2967 C   0  0  0  0  0  0  0  0  0  0  0  0
   -5.5543   -9.2574   27.0804 C   0  0  0  0  0  0  0  0  0  0  0  0
   -3.6283   -8.8095   26.2942 N   0  0  0  0  0  0  0  0  0  0  0  0
   -2.6019  -10.5621   26.5911 C   0  0  0  0  0  0  0  0  0  0  0  0
   -3.7583  -11.7617   27.0586 N   0  0  0  0  0  0  0  0  0  0  0  0
   -6.3620  -13.7599   29.6857 N   0  0  0  0  0  0  0  0  0  0  0  0
   -6.6573  -16.9466   32.8433 C   0  0  0  0  0  0  0  0  0  0  0  0
   -7.7366  -17.4962   33.7756 C   0  0  0  0  0  0  0  0  0  0  0  0
   -8.6914  -16.2628   33.4473 C   0  0  0  0  0  0  0  0  0  0  0  0
   -6.4716  -18.0231   36.8168 H   0  0  0  0  0  0  0  0  0  0  0  0
   -6.7708  -17.5080   38.4873 H   0  0  0  0  0  0  0  0  0  0  0  0
   -8.1100  -17.6182   37.3235 H   0  0  0  0  0  0  0  0  0  0  0  0
   -5.7853  -15.6069   37.1284 H   0  0  0  0  0  0  0  0  0  0  0  0
   -7.4379  -15.2306   37.6859 H   0  0  0  0  0  0  0  0  0  0  0  0
   -7.0075  -11.8508   32.5304 H   0  0  0  0  0  0  0  0  0  0  0  0
   -5.7138   -8.4594   27.8330 H   0  0  0  0  0  0  0  0  0  0  0  0
   -3.3139   -7.8565   26.6153 H   0  0  0  0  0  0  0  0  0  0  0  0
   -2.2815  -11.2513   25.7500 H   0  0  0  0  0  0  0  0  0  0  0  0
   -5.5947  -16.9002   32.9855 H   0  0  0  0  0  0  0  0  0  0  0  0
   -6.6651  -17.5841   31.9603 H   0  0  0  0  0  0  0  0  0  0  0  0
   -8.1566  -18.4881   33.6043 H   0  0  0  0  0  0  0  0  0  0  0  0
   -7.3791  -17.6415   34.7905 H   0  0  0  0  0  0  0  0  0  0  0  0
   -9.5424  -16.1374   32.8134 H   0  0  0  0  0  0  0  0  0  0  0  0
   -9.2304  -16.1409   34.4025 H   0  0  0  0  0  0  0  0  0  0  0  0
  1  2  1  0
  2  3  1  0
  3  4  1  0
  4  5  2  0
  4  6  1  0
  6  7  1  0
  7  8  2  0
  8  9  1  0
  9 10  1  0
 10 11  1  0
 11 12  2  0
 12 13  1  0
 13 14  1  0
 14 15  2  0
 10 16  2  0
  6 17  1  0
 17 18  1  0
 18 19  1  0
 19  6  1  0
 16  7  1  0
 15 11  1  0
  1 20  1  0
  1 21  1  0
  1 22  1  0
  2 23  1  0
  2 24  1  0
  8 25  1  0
 12 26  1  0
 13 27  1  0
 14 28  1  0
 17 29  1  0
 17 30  1  0
 18 31  1  0
 18 32  1  0
 19 33  1  0
 19 34  1  0
M  END
>  <Energy>  (257) 
1138.2164991883467

>  <compound_id>  (257) 
60650

>  <target_id>  (257) 
1

>  <reference_id>  (257) 
123

>  <inspiration_ids>  (257) 
[123, 116]

>  <energy_score>  (257) 
1008.4949209588101

>  <distance_score>  (257) 
9.009937450116324

>  <path>  (257) 
/opt/xchem-fragalysis-2/maxwin/BulkDock/SCRATCH/511021/C60650-P123/C60650-P123.minimised.mol

>  <scratch_subdir>  (257) 
/opt/xchem-fragalysis-2/maxwin/BulkDock/SCRATCH/511021/C60650-P123

>  <fragmenstein_runtime>  (257) 
13.467194080352783

>  <fragmenstein_outcome>  (257) 
too moved

>  <fragmenstein_mode>  (257) 
expansion

>  <fragmenstein_error>  (257) 


$$$$
C60650-P116
     RDKit          3D

 34 36  0  0  0  0  0  0  0  0999 V2000
  -11.6933  -22.8155   27.6517 C   0  0  0  0  0  0  0  0  0  0  0  0
  -11.9936  -21.9742   28.8693 C   0  0  0  0  0  0  0  0  0  0  0  0
  -10.8195  -21.7095   29.6180 O   0  0  0  0  0  0  0  0  0  0  0  0
  -11.0495  -21.4449   30.9731 C   0  0  0  0  0  0  0  0  0  0  0  0
  -12.1900  -21.0281   31.1289 O   0  0  0  0  0  0  0  0  0  0  0  0
   -9.5553  -21.9227   32.3996 C   0  0  0  0  0  0  0  0  0  0  0  0
   -8.0598  -20.8311   33.5705 C   0  0  0  0  0  0  0  0  0  0  0  0
   -8.3745  -19.6285   34.2906 C   0  0  0  0  0  0  0  0  0  0  0  0
   -7.4171  -17.9196   33.6405 S   0  0  0  0  0  0  0  0  0  0  0  0
   -7.2556  -18.5585   31.7645 C   0  0  0  0  0  0  0  0  0  0  0  0
   -6.2875  -17.7812   29.9446 C   0  0  0  0  0  0  0  0  0  0  0  0
   -5.6811  -16.4797   29.8475 C   0  0  0  0  0  0  0  0  0  0  0  0
   -4.5874  -16.5064   28.9471 N   0  0  0  0  0  0  0  0  0  0  0  0
   -4.4332  -17.4626   27.9373 C   0  0  0  0  0  0  0  0  0  0  0  0
   -5.9026  -18.1338   28.2061 N   0  0  0  0  0  0  0  0  0  0  0  0
   -6.9260  -19.9812   32.4978 N   0  0  0  0  0  0  0  0  0  0  0  0
   -8.8015  -23.5903   33.1971 C   0  0  0  0  0  0  0  0  0  0  0  0
   -9.5828  -24.6328   32.5793 C   0  0  0  0  0  0  0  0  0  0  0  0
  -10.4950  -23.5647   32.3095 C   0  0  0  0  0  0  0  0  0  0  0  0
  -11.6385  -22.1499   26.7952 H   0  0  0  0  0  0  0  0  0  0  0  0
  -12.4939  -23.5118   27.4027 H   0  0  0  0  0  0  0  0  0  0  0  0
  -10.7650  -23.3824   27.7546 H   0  0  0  0  0  0  0  0  0  0  0  0
  -12.6264  -22.5056   29.5512 H   0  0  0  0  0  0  0  0  0  0  0  0
  -12.5115  -21.0563   28.6176 H   0  0  0  0  0  0  0  0  0  0  0  0
   -9.0845  -19.3860   35.0623 H   0  0  0  0  0  0  0  0  0  0  0  0
   -5.8801  -15.5922   30.4112 H   0  0  0  0  0  0  0  0  0  0  0  0
   -3.8258  -15.8584   28.7793 H   0  0  0  0  0  0  0  0  0  0  0  0
   -3.4742  -17.7163   27.4958 H   0  0  0  0  0  0  0  0  0  0  0  0
   -7.7944  -24.0997   33.1520 H   0  0  0  0  0  0  0  0  0  0  0  0
   -8.1249  -23.1259   34.0324 H   0  0  0  0  0  0  0  0  0  0  0  0
  -10.0645  -25.4228   33.1164 H   0  0  0  0  0  0  0  0  0  0  0  0
   -9.0831  -25.1428   31.7579 H   0  0  0  0  0  0  0  0  0  0  0  0
  -10.7749  -23.8839   31.3213 H   0  0  0  0  0  0  0  0  0  0  0  0
  -11.4933  -23.3913   32.4277 H   0  0  0  0  0  0  0  0  0  0  0  0
  1  2  1  0
  2  3  1  0
  3  4  1  0
  4  5  2  0
  4  6  1  0
  6  7  1  0
  7  8  2  0
  8  9  1  0
  9 10  1  0
 10 11  1  0
 11 12  2  0
 12 13  1  0
 13 14  1  0
 14 15  2  0
 10 16  2  0
  6 17  1  0
 17 18  1  0
 18 19  1  0
 19  6  1  0
 16  7  1  0
 15 11  1  0
  1 20  1  0
  1 21  1  0
  1 22  1  0
  2 23  1  0
  2 24  1  0
  8 25  1  0
 12 26  1  0
 13 27  1  0
 14 28  1  0
 17 29  1  0
 17 30  1  0
 18 31  1  0
 18 32  1  0
 19 33  1  0
 19 34  1  0
M  END
>  <Energy>  (258) 
844.02956136924468

>  <compound_id>  (258) 
60650

>  <target_id>  (258) 
1

>  <reference_id>  (258) 
116

>  <inspiration_ids>  (258) 
[123, 116]

>  <energy_score>  (258) 
714.3079831397142

>  <distance_score>  (258) 
4.640071913645749

>  <path>  (258) 
/opt/xchem-fragalysis-2/maxwin/BulkDock/SCRATCH/511021/C60650-P116/C60650-P116.minimised.mol

>  <scratch_subdir>  (258) 
/opt/xchem-fragalysis-2/maxwin/BulkDock/SCRATCH/511021/C60650-P116

>  <fragmenstein_runtime>  (258) 
12.601317405700684

>  <fragmenstein_outcome>  (258) 
too moved

>  <fragmenstein_mode>  (258) 
expansion

>  <fragmenstein_error>  (258) 


$$$$
C60651-P123
     RDKit          3D

 39 40  0  0  0  0  0  0  0  0999 V2000
  -10.4432  -25.6457   28.9298 C   0  0  0  0  0  0  0  0  0  0  0  0
  -11.1004  -25.8211   30.2871 C   0  0  0  0  0  0  0  0  0  0  0  0
  -10.5395  -24.9296   31.2593 O   0  0  0  0  0  0  0  0  0  0  0  0
  -11.0276  -23.6552   31.2436 C   0  0  0  0  0  0  0  0  0  0  0  0
  -11.7956  -23.2342   30.3769 O   0  0  0  0  0  0  0  0  0  0  0  0
  -10.4800  -22.8045   32.4073 C   0  0  0  0  0  0  0  0  0  0  0  0
   -8.9439  -23.0297   33.0308 C   0  0  0  0  0  0  0  0  0  0  0  0
   -8.5616  -21.1002   33.0158 C   0  0  0  0  0  0  0  0  0  0  0  0
   -7.9322  -19.6285   33.9553 C   0  0  0  0  0  0  0  0  0  0  0  0
   -8.5022  -18.0491   34.1876 C   0  0  0  0  0  0  0  0  0  0  0  0
   -8.4290  -17.7569   35.6603 N   0  0  0  0  0  0  0  0  0  0  0  0
   -7.8066  -16.7526   33.5741 C   0  0  0  0  0  0  0  0  0  0  0  0
   -8.7964  -15.6490   32.9153 C   0  0  0  0  0  0  0  0  0  0  0  0
  -10.1609  -15.3063   33.1114 C   0  0  0  0  0  0  0  0  0  0  0  0
  -10.4115  -14.1094   32.4274 N   0  0  0  0  0  0  0  0  0  0  0  0
   -9.2325  -13.6541   31.8874 C   0  0  0  0  0  0  0  0  0  0  0  0
   -8.2573  -14.5061   32.1489 N   0  0  0  0  0  0  0  0  0  0  0  0
  -10.2067  -21.1818   32.1071 C   0  0  0  0  0  0  0  0  0  0  0  0
   -9.3645  -25.7988   29.0143 H   0  0  0  0  0  0  0  0  0  0  0  0
  -10.8464  -26.3615   28.2082 H   0  0  0  0  0  0  0  0  0  0  0  0
  -10.5911  -24.6358   28.5364 H   0  0  0  0  0  0  0  0  0  0  0  0
  -12.1833  -25.6844   30.2181 H   0  0  0  0  0  0  0  0  0  0  0  0
  -10.9283  -26.8390   30.6514 H   0  0  0  0  0  0  0  0  0  0  0  0
  -11.2542  -22.9298   33.1883 H   0  0  0  0  0  0  0  0  0  0  0  0
   -8.4011  -23.7398   32.3943 H   0  0  0  0  0  0  0  0  0  0  0  0
   -8.6905  -23.5611   33.9204 H   0  0  0  0  0  0  0  0  0  0  0  0
   -7.5254  -21.3106   32.6955 H   0  0  0  0  0  0  0  0  0  0  0  0
   -6.8785  -19.5367   33.6866 H   0  0  0  0  0  0  0  0  0  0  0  0
   -7.8908  -19.9812   34.9626 H   0  0  0  0  0  0  0  0  0  0  0  0
   -9.5566  -18.0101   33.9351 H   0  0  0  0  0  0  0  0  0  0  0  0
   -7.4594  -17.8410   35.9808 H   0  0  0  0  0  0  0  0  0  0  0  0
   -8.6999  -16.7849   35.8109 H   0  0  0  0  0  0  0  0  0  0  0  0
   -7.0227  -17.1027   32.8999 H   0  0  0  0  0  0  0  0  0  0  0  0
   -7.2540  -16.1915   34.3389 H   0  0  0  0  0  0  0  0  0  0  0  0
  -10.8941  -15.6753   33.8127 H   0  0  0  0  0  0  0  0  0  0  0  0
  -11.2946  -13.6250   32.4185 H   0  0  0  0  0  0  0  0  0  0  0  0
   -9.1480  -12.7290   31.3378 H   0  0  0  0  0  0  0  0  0  0  0  0
  -10.3019  -20.9673   31.0455 H   0  0  0  0  0  0  0  0  0  0  0  0
  -10.9702  -20.5515   32.5858 H   0  0  0  0  0  0  0  0  0  0  0  0
  1  2  1  0
  2  3  1  0
  3  4  1  0
  4  5  2  0
  4  6  1  0
  6  7  1  0
  7  8  1  0
  8  9  1  0
  9 10  1  0
 10 11  1  0
 10 12  1  0
 12 13  1  0
 13 14  2  0
 14 15  1  0
 15 16  1  0
 16 17  2  0
  8 18  1  0
 18  6  1  0
 17 13  1  0
  1 19  1  0
  1 20  1  0
  1 21  1  0
  2 22  1  0
  2 23  1  0
  6 24  1  0
  7 25  1  0
  7 26  1  0
  8 27  1  0
  9 28  1  0
  9 29  1  0
 10 30  1  0
 11 31  1  0
 11 32  1  0
 12 33  1  0
 12 34  1  0
 14 35  1  0
 15 36  1  0
 16 37  1  0
 18 38  1  0
 18 39  1  0
M  END
>  <Energy>  (259) 
195.93210182015829

>  <compound_id>  (259) 
60651

>  <target_id>  (259) 
1

>  <reference_id>  (259) 
123

>  <inspiration_ids>  (259) 
[123, 116]

>  <energy_score>  (259) 
126.22059016863022

>  <distance_score>  (259) 
6.394418858751889

>  <path>  (259) 
/opt/xchem-fragalysis-2/maxwin/BulkDock/SCRATCH/511021/C60651-P123/C60651-P123.minimised.mol

>  <scratch_subdir>  (259) 
/opt/xchem-fragalysis-2/maxwin/BulkDock/SCRATCH/511021/C60651-P123

>  <fragmenstein_runtime>  (259) 
18.85055923461914

>  <fragmenstein_outcome>  (259) 
too moved

>  <fragmenstein_mode>  (259) 
expansion

>  <fragmenstein_error>  (259) 


$$$$
C60651-P116
     RDKit          3D

 39 40  0  0  0  0  0  0  0  0999 V2000
  -12.8050  -24.3404   26.1944 C   0  0  0  0  0  0  0  0  0  0  0  0
  -12.1414  -23.0195   26.4750 C   0  0  0  0  0  0  0  0  0  0  0  0
  -12.2748  -22.4655   27.7954 O   0  0  0  0  0  0  0  0  0  0  0  0
  -11.4271  -23.0410   28.7033 C   0  0  0  0  0  0  0  0  0  0  0  0
  -10.6478  -23.9252   28.3122 O   0  0  0  0  0  0  0  0  0  0  0  0
  -11.4121  -22.4604   30.1827 C   0  0  0  0  0  0  0  0  0  0  0  0
  -10.9618  -23.2394   31.9169 C   0  0  0  0  0  0  0  0  0  0  0  0
   -9.8964  -21.6646   32.3229 C   0  0  0  0  0  0  0  0  0  0  0  0
   -8.3443  -21.1046   33.5783 C   0  0  0  0  0  0  0  0  0  0  0  0
   -7.1130  -19.6815   33.0126 C   0  0  0  0  0  0  0  0  0  0  0  0
   -5.8431  -20.0129   33.7005 N   0  0  0  0  0  0  0  0  0  0  0  0
   -7.1513  -18.2356   31.6699 C   0  0  0  0  0  0  0  0  0  0  0  0
   -6.2278  -17.6483   29.9445 C   0  0  0  0  0  0  0  0  0  0  0  0
   -5.6001  -16.4036   29.8004 C   0  0  0  0  0  0  0  0  0  0  0  0
   -4.5285  -16.4963   28.8681 N   0  0  0  0  0  0  0  0  0  0  0  0
   -4.4530  -17.4932   27.9146 C   0  0  0  0  0  0  0  0  0  0  0  0
   -5.9539  -18.0911   28.2423 N   0  0  0  0  0  0  0  0  0  0  0  0
  -11.2577  -21.2272   30.9069 C   0  0  0  0  0  0  0  0  0  0  0  0
  -12.0799  -25.0749   25.8310 H   0  0  0  0  0  0  0  0  0  0  0  0
  -13.1965  -24.7815   27.0779 H   0  0  0  0  0  0  0  0  0  0  0  0
  -13.6031  -24.2368   25.4542 H   0  0  0  0  0  0  0  0  0  0  0  0
  -12.4537  -22.2717   25.7463 H   0  0  0  0  0  0  0  0  0  0  0  0
  -11.1026  -23.2514   26.2948 H   0  0  0  0  0  0  0  0  0  0  0  0
  -10.5698  -22.0665   29.6018 H   0  0  0  0  0  0  0  0  0  0  0  0
  -10.1847  -24.0552   31.8044 H   0  0  0  0  0  0  0  0  0  0  0  0
  -11.3466  -23.9773   32.5378 H   0  0  0  0  0  0  0  0  0  0  0  0
  -10.1252  -20.6791   32.8260 H   0  0  0  0  0  0  0  0  0  0  0  0
   -7.7679  -21.9602   33.9647 H   0  0  0  0  0  0  0  0  0  0  0  0
   -8.8254  -20.5929   34.4354 H   0  0  0  0  0  0  0  0  0  0  0  0
   -7.5241  -18.9950   33.7807 H   0  0  0  0  0  0  0  0  0  0  0  0
   -5.2708  -19.1808   33.8071 H   0  0  0  0  0  0  0  0  0  0  0  0
   -5.3027  -20.6839   33.1578 H   0  0  0  0  0  0  0  0  0  0  0  0
   -7.7681  -17.5534   32.2326 H   0  0  0  0  0  0  0  0  0  0  0  0
   -6.4479  -17.6573   32.3432 H   0  0  0  0  0  0  0  0  0  0  0  0
   -5.8185  -15.4918   30.3209 H   0  0  0  0  0  0  0  0  0  0  0  0
   -3.7612  -15.8593   28.6731 H   0  0  0  0  0  0  0  0  0  0  0  0
   -3.5031  -17.8662   27.5461 H   0  0  0  0  0  0  0  0  0  0  0  0
  -10.9891  -20.5770   30.0959 H   0  0  0  0  0  0  0  0  0  0  0  0
  -12.2961  -21.0451   31.1860 H   0  0  0  0  0  0  0  0  0  0  0  0
  1  2  1  0
  2  3  1  0
  3  4  1  0
  4  5  2  0
  4  6  1  0
  6  7  1  0
  7  8  1  0
  8  9  1  0
  9 10  1  0
 10 11  1  0
 10 12  1  0
 12 13  1  0
 13 14  2  0
 14 15  1  0
 15 16  1  0
 16 17  2  0
  8 18  1  0
 18  6  1  0
 17 13  1  0
  1 19  1  0
  1 20  1  0
  1 21  1  0
  2 22  1  0
  2 23  1  0
  6 24  1  0
  7 25  1  0
  7 26  1  0
  8 27  1  0
  9 28  1  0
  9 29  1  0
 10 30  1  0
 11 31  1  0
 11 32  1  0
 12 33  1  0
 12 34  1  0
 14 35  1  0
 15 36  1  0
 16 37  1  0
 18 38  1  0
 18 39  1  0
M  END
>  <Energy>  (260) 
728.88740564385137

>  <compound_id>  (260) 
60651

>  <target_id>  (260) 
1

>  <reference_id>  (260) 
116

>  <inspiration_ids>  (260) 
[123, 116]

>  <energy_score>  (260) 
659.175893992322

>  <distance_score>  (260) 
4.728561965879137

>  <path>  (260) 
/opt/xchem-fragalysis-2/maxwin/BulkDock/SCRATCH/511021/C60651-P116/C60651-P116.minimised.mol

>  <scratch_subdir>  (260) 
/opt/xchem-fragalysis-2/maxwin/BulkDock/SCRATCH/511021/C60651-P116

>  <fragmenstein_runtime>  (260) 
21.42373824119568

>  <fragmenstein_outcome>  (260) 
too moved

>  <fragmenstein_mode>  (260) 
expansion

>  <fragmenstein_error>  (260) 


$$$$
C60652-P123
     RDKit          3D

 36 37  0  0  0  0  0  0  0  0999 V2000
  -13.0062  -24.0718   25.6261 C   0  0  0  0  0  0  0  0  0  0  0  0
  -13.8586  -23.4936   24.4676 C   0  0  0  0  0  0  0  0  0  0  0  0
  -13.0240  -22.6265   23.6753 O   0  0  0  0  0  0  0  0  0  0  0  0
  -13.6390  -21.6330   22.9503 C   0  0  0  0  0  0  0  0  0  0  0  0
  -14.8457  -21.6197   22.7199 O   0  0  0  0  0  0  0  0  0  0  0  0
  -12.5910  -20.5552   22.4955 C   0  0  0  0  0  0  0  0  0  0  0  0
  -12.9447  -19.0642   22.4864 C   0  0  0  0  0  0  0  0  0  0  0  0
  -11.6853  -18.6507   23.2976 C   0  0  0  0  0  0  0  0  0  0  0  0
  -10.3053  -17.8169   23.0684 C   0  0  0  0  0  0  0  0  0  0  0  0
  -10.0786  -17.8136   21.6096 N   0  0  0  0  0  0  0  0  0  0  0  0
  -10.2832  -16.2104   23.5711 C   0  0  0  0  0  0  0  0  0  0  0  0
   -9.0172  -15.3114   24.1795 C   0  0  0  0  0  0  0  0  0  0  0  0
   -8.2568  -14.3223   23.5611 C   0  0  0  0  0  0  0  0  0  0  0  0
   -7.6497  -13.5740   24.5395 N   0  0  0  0  0  0  0  0  0  0  0  0
   -8.0827  -14.0582   25.7283 C   0  0  0  0  0  0  0  0  0  0  0  0
   -8.8418  -15.1208   25.5545 N   0  0  0  0  0  0  0  0  0  0  0  0
  -11.5418  -20.2211   23.5465 C   0  0  0  0  0  0  0  0  0  0  0  0
  -12.0829  -24.5369   25.2713 H   0  0  0  0  0  0  0  0  0  0  0  0
  -13.5818  -24.8132   26.1873 H   0  0  0  0  0  0  0  0  0  0  0  0
  -12.6828  -23.2843   26.3117 H   0  0  0  0  0  0  0  0  0  0  0  0
  -14.2521  -24.2978   23.8387 H   0  0  0  0  0  0  0  0  0  0  0  0
  -14.7395  -22.9607   24.8234 H   0  0  0  0  0  0  0  0  0  0  0  0
  -12.1314  -20.8511   21.5416 H   0  0  0  0  0  0  0  0  0  0  0  0
  -13.0065  -18.6183   21.4881 H   0  0  0  0  0  0  0  0  0  0  0  0
  -13.8882  -18.8403   23.0016 H   0  0  0  0  0  0  0  0  0  0  0  0
  -12.1281  -17.9744   24.0270 H   0  0  0  0  0  0  0  0  0  0  0  0
   -9.4458  -18.3451   23.4422 H   0  0  0  0  0  0  0  0  0  0  0  0
   -9.9789  -18.7682   21.2632 H   0  0  0  0  0  0  0  0  0  0  0  0
  -10.8711  -17.4005   21.1205 H   0  0  0  0  0  0  0  0  0  0  0  0
  -11.0622  -16.0914   24.3231 H   0  0  0  0  0  0  0  0  0  0  0  0
  -10.6386  -15.6099   22.7200 H   0  0  0  0  0  0  0  0  0  0  0  0
   -8.2021  -14.0331   22.5210 H   0  0  0  0  0  0  0  0  0  0  0  0
   -7.0671  -12.7592   24.4015 H   0  0  0  0  0  0  0  0  0  0  0  0
   -7.8213  -13.6145   26.6803 H   0  0  0  0  0  0  0  0  0  0  0  0
  -11.8359  -20.5771   24.5273 H   0  0  0  0  0  0  0  0  0  0  0  0
  -10.5873  -20.6434   23.2388 H   0  0  0  0  0  0  0  0  0  0  0  0
  1  2  1  0
  2  3  1  0
  3  4  1  0
  4  5  2  0
  4  6  1  0
  6  7  1  0
  7  8  1  0
  8  9  1  0
  9 10  1  0
  9 11  1  0
 11 12  1  0
 12 13  2  0
 13 14  1  0
 14 15  1  0
 15 16  2  0
  8 17  1  0
 17  6  1  0
 16 12  1  0
  1 18  1  0
  1 19  1  0
  1 20  1  0
  2 21  1  0
  2 22  1  0
  6 23  1  0
  7 24  1  0
  7 25  1  0
  8 26  1  0
  9 27  1  0
 10 28  1  0
 10 29  1  0
 11 30  1  0
 11 31  1  0
 13 32  1  0
 14 33  1  0
 15 34  1  0
 17 35  1  0
 17 36  1  0
M  END
>  <Energy>  (261) 
76.189916149489207

>  <compound_id>  (261) 
60652

>  <target_id>  (261) 
1

>  <reference_id>  (261) 
123

>  <inspiration_ids>  (261) 
[123, 116]

>  <energy_score>  (261) 
14.495308544785757

>  <distance_score>  (261) 
9.030315883256385

>  <path>  (261) 
/opt/xchem-fragalysis-2/maxwin/BulkDock/SCRATCH/511021/C60652-P123/C60652-P123.minimised.mol

>  <scratch_subdir>  (261) 
/opt/xchem-fragalysis-2/maxwin/BulkDock/SCRATCH/511021/C60652-P123

>  <fragmenstein_runtime>  (261) 
20.4348464012146

>  <fragmenstein_outcome>  (261) 
too moved

>  <fragmenstein_mode>  (261) 
expansion

>  <fragmenstein_error>  (261) 


$$$$
C60652-P116
     RDKit          3D

 36 37  0  0  0  0  0  0  0  0999 V2000
  -11.8734  -23.3865   27.0118 C   0  0  0  0  0  0  0  0  0  0  0  0
  -11.6795  -22.3249   28.0807 C   0  0  0  0  0  0  0  0  0  0  0  0
  -11.0708  -22.8655   29.2534 O   0  0  0  0  0  0  0  0  0  0  0  0
  -11.5034  -22.4334   30.5281 C   0  0  0  0  0  0  0  0  0  0  0  0
  -12.2923  -21.4937   30.5691 O   0  0  0  0  0  0  0  0  0  0  0  0
  -10.5521  -23.4539   32.0693 C   0  0  0  0  0  0  0  0  0  0  0  0
   -9.1034  -23.5341   32.9348 C   0  0  0  0  0  0  0  0  0  0  0  0
   -8.3453  -21.5734   33.3520 C   0  0  0  0  0  0  0  0  0  0  0  0
   -7.0429  -20.1092   32.7371 C   0  0  0  0  0  0  0  0  0  0  0  0
   -6.8114  -19.3513   34.0202 N   0  0  0  0  0  0  0  0  0  0  0  0
   -7.2915  -18.5947   31.3455 C   0  0  0  0  0  0  0  0  0  0  0  0
   -6.2475  -17.7791   29.7919 C   0  0  0  0  0  0  0  0  0  0  0  0
   -5.6396  -16.4916   29.7765 C   0  0  0  0  0  0  0  0  0  0  0  0
   -4.5422  -16.5051   28.8854 N   0  0  0  0  0  0  0  0  0  0  0  0
   -4.3742  -17.4688   27.9093 C   0  0  0  0  0  0  0  0  0  0  0  0
   -5.7901  -18.1767   28.0837 N   0  0  0  0  0  0  0  0  0  0  0  0
  -10.0015  -21.8077   32.3281 C   0  0  0  0  0  0  0  0  0  0  0  0
  -12.6803  -24.0709   27.2467 H   0  0  0  0  0  0  0  0  0  0  0  0
  -10.9700  -23.9910   26.8844 H   0  0  0  0  0  0  0  0  0  0  0  0
  -12.1462  -22.9258   26.0591 H   0  0  0  0  0  0  0  0  0  0  0  0
  -10.9586  -21.6278   27.7009 H   0  0  0  0  0  0  0  0  0  0  0  0
  -12.5900  -21.7696   28.2843 H   0  0  0  0  0  0  0  0  0  0  0  0
  -11.1416  -24.2178   32.4979 H   0  0  0  0  0  0  0  0  0  0  0  0
   -8.2477  -24.2399   32.9875 H   0  0  0  0  0  0  0  0  0  0  0  0
   -9.5173  -24.4836   33.2699 H   0  0  0  0  0  0  0  0  0  0  0  0
   -8.3167  -21.3382   34.4359 H   0  0  0  0  0  0  0  0  0  0  0  0
   -6.1094  -20.6480   32.6013 H   0  0  0  0  0  0  0  0  0  0  0  0
   -7.6957  -18.8892   34.2382 H   0  0  0  0  0  0  0  0  0  0  0  0
   -6.6508  -20.0273   34.7636 H   0  0  0  0  0  0  0  0  0  0  0  0
   -7.6859  -18.9732   30.4601 H   0  0  0  0  0  0  0  0  0  0  0  0
   -7.3555  -17.7851   32.0534 H   0  0  0  0  0  0  0  0  0  0  0  0
   -5.8541  -15.6261   30.3681 H   0  0  0  0  0  0  0  0  0  0  0  0
   -3.7858  -15.8450   28.7346 H   0  0  0  0  0  0  0  0  0  0  0  0
   -3.4173  -17.6382   27.4224 H   0  0  0  0  0  0  0  0  0  0  0  0
  -10.9410  -22.3684   32.5674 H   0  0  0  0  0  0  0  0  0  0  0  0
  -10.4157  -21.0484   31.6488 H   0  0  0  0  0  0  0  0  0  0  0  0
  1  2  1  0
  2  3  1  0
  3  4  1  0
  4  5  2  0
  4  6  1  0
  6  7  1  0
  7  8  1  0
  8  9  1  0
  9 10  1  0
  9 11  1  0
 11 12  1  0
 12 13  2  0
 13 14  1  0
 14 15  1  0
 15 16  2  0
  8 17  1  0
 17  6  1  0
 16 12  1  0
  1 18  1  0
  1 19  1  0
  1 20  1  0
  2 21  1  0
  2 22  1  0
  6 23  1  0
  7 24  1  0
  7 25  1  0
  8 26  1  0
  9 27  1  0
 10 28  1  0
 10 29  1  0
 11 30  1  0
 11 31  1  0
 13 32  1  0
 14 33  1  0
 15 34  1  0
 17 35  1  0
 17 36  1  0
M  END
>  <Energy>  (262) 
838.82922549846148

>  <compound_id>  (262) 
60652

>  <target_id>  (262) 
1

>  <reference_id>  (262) 
116

>  <inspiration_ids>  (262) 
[123, 116]

>  <energy_score>  (262) 
776.0743859808356

>  <distance_score>  (262) 
4.561773000345448

>  <path>  (262) 
/opt/xchem-fragalysis-2/maxwin/BulkDock/SCRATCH/511021/C60652-P116/C60652-P116.minimised.mol

>  <scratch_subdir>  (262) 
/opt/xchem-fragalysis-2/maxwin/BulkDock/SCRATCH/511021/C60652-P116

>  <fragmenstein_runtime>  (262) 
15.247694730758667

>  <fragmenstein_outcome>  (262) 
too moved

>  <fragmenstein_mode>  (262) 
expansion

>  <fragmenstein_error>  (262) 


$$$$
C60653-P123
     RDKit          3D

 44 45  0  0  0  0  0  0  0  0999 V2000
  -11.4743  -24.6921   28.1923 C   0  0  0  0  0  0  0  0  0  0  0  0
  -11.9241  -23.3136   28.6394 C   0  0  0  0  0  0  0  0  0  0  0  0
  -11.6658  -23.1909   30.0452 O   0  0  0  0  0  0  0  0  0  0  0  0
  -11.4501  -21.9214   30.5264 C   0  0  0  0  0  0  0  0  0  0  0  0
  -11.5933  -20.9575   29.7922 O   0  0  0  0  0  0  0  0  0  0  0  0
  -10.9742  -21.9439   32.1206 C   0  0  0  0  0  0  0  0  0  0  0  0
  -10.2654  -20.4068   32.6395 C   0  0  0  0  0  0  0  0  0  0  0  0
   -8.6362  -19.9911   33.4409 C   0  0  0  0  0  0  0  0  0  0  0  0
   -8.4199  -18.4014   33.6892 N   0  0  0  0  0  0  0  0  0  0  0  0
   -7.3055  -17.4627   33.2325 C   0  0  0  0  0  0  0  0  0  0  0  0
   -6.2795  -17.6933   32.6508 O   0  0  0  0  0  0  0  0  0  0  0  0
   -7.6220  -15.9328   33.4782 C   0  0  0  0  0  0  0  0  0  0  0  0
   -7.9620  -14.5916   32.3059 C   0  0  0  0  0  0  0  0  0  0  0  0
   -6.8615  -13.4489   31.3694 C   0  0  0  0  0  0  0  0  0  0  0  0
   -6.5183  -11.9752   31.7395 C   0  0  0  0  0  0  0  0  0  0  0  0
   -5.3380  -11.7876   31.0406 N   0  0  0  0  0  0  0  0  0  0  0  0
   -5.1470  -12.7871   30.1408 C   0  0  0  0  0  0  0  0  0  0  0  0
   -6.0357  -13.7889   30.2607 N   0  0  0  0  0  0  0  0  0  0  0  0
  -10.4860  -23.4453   32.4855 C   0  0  0  0  0  0  0  0  0  0  0  0
  -11.8617  -23.7371   33.0880 C   0  0  0  0  0  0  0  0  0  0  0  0
  -12.2512  -22.2556   33.0089 C   0  0  0  0  0  0  0  0  0  0  0  0
  -12.0024  -25.4704   28.7529 H   0  0  0  0  0  0  0  0  0  0  0  0
  -11.6606  -24.8366   27.1244 H   0  0  0  0  0  0  0  0  0  0  0  0
  -10.4058  -24.8292   28.3879 H   0  0  0  0  0  0  0  0  0  0  0  0
  -11.3874  -22.5549   28.0605 H   0  0  0  0  0  0  0  0  0  0  0  0
  -12.9988  -23.2099   28.4767 H   0  0  0  0  0  0  0  0  0  0  0  0
  -11.0572  -19.8844   33.1880 H   0  0  0  0  0  0  0  0  0  0  0  0
  -10.2210  -20.0210   31.6767 H   0  0  0  0  0  0  0  0  0  0  0  0
   -7.9124  -20.7571   33.0937 H   0  0  0  0  0  0  0  0  0  0  0  0
   -8.2396  -20.2631   34.4062 H   0  0  0  0  0  0  0  0  0  0  0  0
   -9.1792  -17.8557   34.0792 H   0  0  0  0  0  0  0  0  0  0  0  0
   -6.9206  -15.5731   34.2365 H   0  0  0  0  0  0  0  0  0  0  0  0
   -8.5915  -16.0747   33.9673 H   0  0  0  0  0  0  0  0  0  0  0  0
   -8.4417  -14.7973   31.4183 H   0  0  0  0  0  0  0  0  0  0  0  0
   -8.9424  -14.1943   32.5761 H   0  0  0  0  0  0  0  0  0  0  0  0
   -7.0332  -11.1271   32.1911 H   0  0  0  0  0  0  0  0  0  0  0  0
   -4.5815  -11.2447   31.3765 H   0  0  0  0  0  0  0  0  0  0  0  0
   -4.2510  -12.6774   29.5675 H   0  0  0  0  0  0  0  0  0  0  0  0
  -10.2615  -24.1137   31.6455 H   0  0  0  0  0  0  0  0  0  0  0  0
   -9.6172  -23.5693   33.1301 H   0  0  0  0  0  0  0  0  0  0  0  0
  -11.8528  -24.1681   34.0901 H   0  0  0  0  0  0  0  0  0  0  0  0
  -12.4675  -24.3807   32.4462 H   0  0  0  0  0  0  0  0  0  0  0  0
  -13.2121  -22.0736   32.5143 H   0  0  0  0  0  0  0  0  0  0  0  0
  -12.3034  -21.7585   33.9817 H   0  0  0  0  0  0  0  0  0  0  0  0
  1  2  1  0
  2  3  1  0
  3  4  1  0
  4  5  2  0
  4  6  1  0
  6  7  1  0
  7  8  1  0
  8  9  1  0
  9 10  1  0
 10 11  2  0
 10 12  1  0
 12 13  1  0
 13 14  1  0
 14 15  2  0
 15 16  1  0
 16 17  1  0
 17 18  2  0
  6 19  1  0
 19 20  1  0
 20 21  1  0
 21  6  1  0
 18 14  1  0
  1 22  1  0
  1 23  1  0
  1 24  1  0
  2 25  1  0
  2 26  1  0
  7 27  1  0
  7 28  1  0
  8 29  1  0
  8 30  1  0
  9 31  1  0
 12 32  1  0
 12 33  1  0
 13 34  1  0
 13 35  1  0
 15 36  1  0
 16 37  1  0
 17 38  1  0
 19 39  1  0
 19 40  1  0
 20 41  1  0
 20 42  1  0
 21 43  1  0
 21 44  1  0
M  END
>  <Energy>  (263) 
226.99961993945601

>  <compound_id>  (263) 
60653

>  <target_id>  (263) 
1

>  <reference_id>  (263) 
123

>  <inspiration_ids>  (263) 
[123, 116]

>  <energy_score>  (263) 
215.87196979536475

>  <distance_score>  (263) 
4.045952171188036

>  <path>  (263) 
/opt/xchem-fragalysis-2/maxwin/BulkDock/SCRATCH/511021/C60653-P123/C60653-P123.minimised.mol

>  <scratch_subdir>  (263) 
/opt/xchem-fragalysis-2/maxwin/BulkDock/SCRATCH/511021/C60653-P123

>  <fragmenstein_runtime>  (263) 
22.215171098709106

>  <fragmenstein_outcome>  (263) 
too moved

>  <fragmenstein_mode>  (263) 
expansion

>  <fragmenstein_error>  (263) 


$$$$
C60653-P116
     RDKit          3D

 44 45  0  0  0  0  0  0  0  0999 V2000
  -11.2740  -25.0558   26.9003 C   0  0  0  0  0  0  0  0  0  0  0  0
  -10.8285  -23.6954   27.3936 C   0  0  0  0  0  0  0  0  0  0  0  0
  -11.0376  -23.2207   28.7466 O   0  0  0  0  0  0  0  0  0  0  0  0
  -10.7257  -21.8346   28.9357 C   0  0  0  0  0  0  0  0  0  0  0  0
  -10.3732  -21.3512   27.8950 O   0  0  0  0  0  0  0  0  0  0  0  0
  -11.0438  -20.9525   30.7399 C   0  0  0  0  0  0  0  0  0  0  0  0
  -10.4683  -19.8025   32.3685 C   0  0  0  0  0  0  0  0  0  0  0  0
   -8.9299  -19.1179   33.5447 C   0  0  0  0  0  0  0  0  0  0  0  0
   -7.6807  -17.9832   32.8153 N   0  0  0  0  0  0  0  0  0  0  0  0
   -7.0513  -17.9281   31.3599 C   0  0  0  0  0  0  0  0  0  0  0  0
   -7.2323  -18.7121   30.4825 O   0  0  0  0  0  0  0  0  0  0  0  0
   -5.9288  -16.3499   30.6468 C   0  0  0  0  0  0  0  0  0  0  0  0
   -4.5513  -16.2113   29.7718 C   0  0  0  0  0  0  0  0  0  0  0  0
   -2.8575  -15.1752   29.3245 C   0  0  0  0  0  0  0  0  0  0  0  0
   -1.4732  -15.1599   29.8711 C   0  0  0  0  0  0  0  0  0  0  0  0
   -0.7355  -14.2960   29.1123 N   0  0  0  0  0  0  0  0  0  0  0  0
   -1.4618  -14.1290   27.9976 C   0  0  0  0  0  0  0  0  0  0  0  0
   -2.4217  -15.0353   27.9869 N   0  0  0  0  0  0  0  0  0  0  0  0
  -11.7809  -22.1788   31.1154 C   0  0  0  0  0  0  0  0  0  0  0  0
  -13.0220  -21.5356   30.6150 C   0  0  0  0  0  0  0  0  0  0  0  0
  -12.4874  -20.7466   29.5716 C   0  0  0  0  0  0  0  0  0  0  0  0
  -10.9565  -25.8664   27.5552 H   0  0  0  0  0  0  0  0  0  0  0  0
  -12.3562  -25.0858   26.7452 H   0  0  0  0  0  0  0  0  0  0  0  0
  -10.8327  -25.2448   25.9173 H   0  0  0  0  0  0  0  0  0  0  0  0
   -9.7458  -23.7235   27.2697 H   0  0  0  0  0  0  0  0  0  0  0  0
  -11.3503  -23.0059   26.7268 H   0  0  0  0  0  0  0  0  0  0  0  0
  -11.5336  -19.6544   32.5671 H   0  0  0  0  0  0  0  0  0  0  0  0
  -10.8087  -18.9531   32.9920 H   0  0  0  0  0  0  0  0  0  0  0  0
   -8.4017  -19.9191   34.0871 H   0  0  0  0  0  0  0  0  0  0  0  0
   -9.4051  -18.4624   34.2899 H   0  0  0  0  0  0  0  0  0  0  0  0
   -7.2853  -17.2352   33.3704 H   0  0  0  0  0  0  0  0  0  0  0  0
   -6.2701  -16.4163   29.6094 H   0  0  0  0  0  0  0  0  0  0  0  0
   -6.2955  -15.3458   30.8911 H   0  0  0  0  0  0  0  0  0  0  0  0
   -4.1949  -16.8965   30.5145 H   0  0  0  0  0  0  0  0  0  0  0  0
   -4.5731  -16.6717   28.7894 H   0  0  0  0  0  0  0  0  0  0  0  0
   -1.0594  -15.5291   30.8049 H   0  0  0  0  0  0  0  0  0  0  0  0
    0.1866  -13.9297   29.3065 H   0  0  0  0  0  0  0  0  0  0  0  0
   -1.2004  -13.4470   27.1987 H   0  0  0  0  0  0  0  0  0  0  0  0
  -11.3492  -22.9109   30.5662 H   0  0  0  0  0  0  0  0  0  0  0  0
  -11.5328  -22.6886   32.0332 H   0  0  0  0  0  0  0  0  0  0  0  0
  -13.9755  -21.9285   30.3204 H   0  0  0  0  0  0  0  0  0  0  0  0
  -13.1077  -21.0506   31.5674 H   0  0  0  0  0  0  0  0  0  0  0  0
  -12.6525  -21.2997   28.6373 H   0  0  0  0  0  0  0  0  0  0  0  0
  -12.9981  -19.8153   29.3734 H   0  0  0  0  0  0  0  0  0  0  0  0
  1  2  1  0
  2  3  1  0
  3  4  1  0
  4  5  2  0
  4  6  1  0
  6  7  1  0
  7  8  1  0
  8  9  1  0
  9 10  1  0
 10 11  2  0
 10 12  1  0
 12 13  1  0
 13 14  1  0
 14 15  2  0
 15 16  1  0
 16 17  1  0
 17 18  2  0
  6 19  1  0
 19 20  1  0
 20 21  1  0
 21  6  1  0
 18 14  1  0
  1 22  1  0
  1 23  1  0
  1 24  1  0
  2 25  1  0
  2 26  1  0
  7 27  1  0
  7 28  1  0
  8 29  1  0
  8 30  1  0
  9 31  1  0
 12 32  1  0
 12 33  1  0
 13 34  1  0
 13 35  1  0
 15 36  1  0
 16 37  1  0
 17 38  1  0
 19 39  1  0
 19 40  1  0
 20 41  1  0
 20 42  1  0
 21 43  1  0
 21 44  1  0
M  END
>  <Energy>  (264) 
805.18884241473984

>  <compound_id>  (264) 
60653

>  <target_id>  (264) 
1

>  <reference_id>  (264) 
116

>  <inspiration_ids>  (264) 
[123, 116]

>  <energy_score>  (264) 
794.061192270641

>  <distance_score>  (264) 
3.284899043885401

>  <path>  (264) 
/opt/xchem-fragalysis-2/maxwin/BulkDock/SCRATCH/511021/C60653-P116/C60653-P116.minimised.mol

>  <scratch_subdir>  (264) 
/opt/xchem-fragalysis-2/maxwin/BulkDock/SCRATCH/511021/C60653-P116

>  <fragmenstein_runtime>  (264) 
16.24475932121277

>  <fragmenstein_outcome>  (264) 
too moved

>  <fragmenstein_mode>  (264) 
expansion

>  <fragmenstein_error>  (264) 


$$$$
C60655-P123
     RDKit          3D

 39 40  0  0  0  0  0  0  0  0999 V2000
  -12.5200  -22.2504   34.0085 C   0  0  0  0  0  0  0  0  0  0  0  0
  -12.4747  -20.9115   33.2968 C   0  0  0  0  0  0  0  0  0  0  0  0
  -11.6480  -19.7653   33.7635 O   0  0  0  0  0  0  0  0  0  0  0  0
  -10.3549  -19.5169   33.1584 C   0  0  0  0  0  0  0  0  0  0  0  0
  -10.0458  -20.3057   32.2715 O   0  0  0  0  0  0  0  0  0  0  0  0
   -9.3062  -18.0348   33.9869 C   0  0  0  0  0  0  0  0  0  0  0  0
   -7.6248  -18.2036   33.9074 C   0  0  0  0  0  0  0  0  0  0  0  0
   -6.8967  -17.7682   32.5056 N   0  0  0  0  0  0  0  0  0  0  0  0
   -5.8571  -16.8257   32.2388 C   0  0  0  0  0  0  0  0  0  0  0  0
   -5.2158  -16.1874   32.9735 O   0  0  0  0  0  0  0  0  0  0  0  0
   -5.4425  -16.3358   30.3935 C   0  0  0  0  0  0  0  0  0  0  0  0
   -5.8188  -16.9589   29.2734 O   0  0  0  0  0  0  0  0  0  0  0  0
   -3.6912  -15.9266   29.8260 C   0  0  0  0  0  0  0  0  0  0  0  0
   -3.2581  -15.8662   28.5159 C   0  0  0  0  0  0  0  0  0  0  0  0
   -2.1705  -14.9733   28.6428 N   0  0  0  0  0  0  0  0  0  0  0  0
   -1.6831  -15.2088   29.9475 C   0  0  0  0  0  0  0  0  0  0  0  0
   -2.6196  -15.7873   30.6740 N   0  0  0  0  0  0  0  0  0  0  0  0
  -10.3523  -17.5576   35.2951 C   0  0  0  0  0  0  0  0  0  0  0  0
   -9.4878  -16.3682   35.3981 C   0  0  0  0  0  0  0  0  0  0  0  0
   -9.3670  -16.4852   33.8469 C   0  0  0  0  0  0  0  0  0  0  0  0
  -13.4557  -22.7664   33.7616 H   0  0  0  0  0  0  0  0  0  0  0  0
  -11.7286  -22.9218   33.6693 H   0  0  0  0  0  0  0  0  0  0  0  0
  -12.4856  -22.1328   35.0923 H   0  0  0  0  0  0  0  0  0  0  0  0
  -13.5079  -20.5672   33.4109 H   0  0  0  0  0  0  0  0  0  0  0  0
  -12.2716  -21.1146   32.2424 H   0  0  0  0  0  0  0  0  0  0  0  0
   -7.4059  -19.2565   34.0641 H   0  0  0  0  0  0  0  0  0  0  0  0
   -7.1612  -17.6063   34.6932 H   0  0  0  0  0  0  0  0  0  0  0  0
   -7.1772  -18.1980   31.6439 H   0  0  0  0  0  0  0  0  0  0  0  0
   -5.8351  -15.3078   30.3225 H   0  0  0  0  0  0  0  0  0  0  0  0
   -5.9844  -17.8998   29.3409 H   0  0  0  0  0  0  0  0  0  0  0  0
   -3.2761  -16.6396   27.7455 H   0  0  0  0  0  0  0  0  0  0  0  0
   -1.5104  -14.8424   27.9080 H   0  0  0  0  0  0  0  0  0  0  0  0
   -0.6523  -15.1473   30.2899 H   0  0  0  0  0  0  0  0  0  0  0  0
  -10.4396  -18.0207   36.2602 H   0  0  0  0  0  0  0  0  0  0  0  0
  -11.3886  -17.3443   34.9987 H   0  0  0  0  0  0  0  0  0  0  0  0
   -8.5675  -16.5138   35.9726 H   0  0  0  0  0  0  0  0  0  0  0  0
  -10.0498  -15.5354   35.8311 H   0  0  0  0  0  0  0  0  0  0  0  0
   -8.4575  -16.0686   33.4072 H   0  0  0  0  0  0  0  0  0  0  0  0
  -10.1751  -15.9219   33.3769 H   0  0  0  0  0  0  0  0  0  0  0  0
  1  2  1  0
  2  3  1  0
  3  4  1  0
  4  5  2  0
  4  6  1  0
  6  7  1  0
  7  8  1  0
  8  9  1  0
  9 10  2  0
  9 11  1  0
 11 12  1  0
 11 13  1  0
 13 14  2  0
 14 15  1  0
 15 16  1  0
 16 17  2  0
  6 18  1  0
 18 19  1  0
 19 20  1  0
 20  6  1  0
 17 13  1  0
  1 21  1  0
  1 22  1  0
  1 23  1  0
  2 24  1  0
  2 25  1  0
  7 26  1  0
  7 27  1  0
  8 28  1  0
 11 29  1  0
 12 30  1  0
 14 31  1  0
 15 32  1  0
 16 33  1  0
 18 34  1  0
 18 35  1  0
 19 36  1  0
 19 37  1  0
 20 38  1  0
 20 39  1  0
M  END
>  <Energy>  (265) 
271.26867313721829

>  <compound_id>  (265) 
60655

>  <target_id>  (265) 
1

>  <reference_id>  (265) 
123

>  <inspiration_ids>  (265) 
[123, 116]

>  <energy_score>  (265) 
179.05288259284396

>  <distance_score>  (265) 
6.150103593068742

>  <path>  (265) 
/opt/xchem-fragalysis-2/maxwin/BulkDock/SCRATCH/511021/C60655-P123/C60655-P123.minimised.mol

>  <scratch_subdir>  (265) 
/opt/xchem-fragalysis-2/maxwin/BulkDock/SCRATCH/511021/C60655-P123

>  <fragmenstein_runtime>  (265) 
26.534376859664917

>  <fragmenstein_outcome>  (265) 
too moved

>  <fragmenstein_mode>  (265) 
expansion

>  <fragmenstein_error>  (265) 


$$$$
C60655-P116
     RDKit          3D

 39 40  0  0  0  0  0  0  0  0999 V2000
  -11.3671  -23.6250   27.3664 C   0  0  0  0  0  0  0  0  0  0  0  0
  -11.6466  -22.1788   27.7457 C   0  0  0  0  0  0  0  0  0  0  0  0
  -10.6817  -21.6779   28.7171 O   0  0  0  0  0  0  0  0  0  0  0  0
  -11.1878  -20.7640   29.6955 C   0  0  0  0  0  0  0  0  0  0  0  0
  -12.1620  -20.0753   29.2980 O   0  0  0  0  0  0  0  0  0  0  0  0
  -10.5835  -20.6176   31.6799 C   0  0  0  0  0  0  0  0  0  0  0  0
   -9.4883  -19.2609   33.0275 C   0  0  0  0  0  0  0  0  0  0  0  0
   -7.8519  -18.4332   31.9855 N   0  0  0  0  0  0  0  0  0  0  0  0
   -6.6954  -17.1533   32.4169 C   0  0  0  0  0  0  0  0  0  0  0  0
   -6.6388  -16.6315   33.5171 O   0  0  0  0  0  0  0  0  0  0  0  0
   -5.4927  -16.3668   30.8198 C   0  0  0  0  0  0  0  0  0  0  0  0
   -4.6622  -16.8024   32.5242 O   0  0  0  0  0  0  0  0  0  0  0  0
   -3.6426  -15.5005   30.1411 C   0  0  0  0  0  0  0  0  0  0  0  0
   -2.0381  -15.6122   30.9429 C   0  0  0  0  0  0  0  0  0  0  0  0
   -1.0464  -15.1512   30.0510 N   0  0  0  0  0  0  0  0  0  0  0  0
   -1.6318  -14.8601   28.8564 C   0  0  0  0  0  0  0  0  0  0  0  0
   -2.8931  -15.2441   28.7701 N   0  0  0  0  0  0  0  0  0  0  0  0
  -12.4058  -21.1450   31.2586 C   0  0  0  0  0  0  0  0  0  0  0  0
  -11.8852  -22.4556   30.9184 C   0  0  0  0  0  0  0  0  0  0  0  0
  -11.0299  -22.6039   32.1341 C   0  0  0  0  0  0  0  0  0  0  0  0
  -12.2908  -24.1096   27.0414 H   0  0  0  0  0  0  0  0  0  0  0  0
  -10.6862  -23.7357   26.5259 H   0  0  0  0  0  0  0  0  0  0  0  0
  -10.8871  -24.1672   28.1773 H   0  0  0  0  0  0  0  0  0  0  0  0
  -12.6323  -22.0901   28.1706 H   0  0  0  0  0  0  0  0  0  0  0  0
  -11.6579  -21.5772   26.8443 H   0  0  0  0  0  0  0  0  0  0  0  0
  -10.1344  -18.4986   33.4855 H   0  0  0  0  0  0  0  0  0  0  0  0
   -9.0484  -19.8399   33.8846 H   0  0  0  0  0  0  0  0  0  0  0  0
   -7.6473  -18.7576   31.0524 H   0  0  0  0  0  0  0  0  0  0  0  0
   -6.0388  -15.3958   30.7925 H   0  0  0  0  0  0  0  0  0  0  0  0
   -5.1337  -16.3826   33.2734 H   0  0  0  0  0  0  0  0  0  0  0  0
   -1.8419  -15.8083   32.0067 H   0  0  0  0  0  0  0  0  0  0  0  0
   -0.0673  -15.0438   30.2754 H   0  0  0  0  0  0  0  0  0  0  0  0
   -1.0711  -14.3944   28.0650 H   0  0  0  0  0  0  0  0  0  0  0  0
  -13.0384  -20.9645   32.0841 H   0  0  0  0  0  0  0  0  0  0  0  0
  -13.1530  -21.0801   30.4462 H   0  0  0  0  0  0  0  0  0  0  0  0
  -11.2843  -22.7160   30.0818 H   0  0  0  0  0  0  0  0  0  0  0  0
  -12.8033  -22.8864   30.5244 H   0  0  0  0  0  0  0  0  0  0  0  0
  -11.0168  -23.6893   31.8599 H   0  0  0  0  0  0  0  0  0  0  0  0
  -10.0913  -23.0899   32.5152 H   0  0  0  0  0  0  0  0  0  0  0  0
  1  2  1  0
  2  3  1  0
  3  4  1  0
  4  5  2  0
  4  6  1  0
  6  7  1  0
  7  8  1  0
  8  9  1  0
  9 10  2  0
  9 11  1  0
 11 12  1  0
 11 13  1  0
 13 14  2  0
 14 15  1  0
 15 16  1  0
 16 17  2  0
  6 18  1  0
 18 19  1  0
 19 20  1  0
 20  6  1  0
 17 13  1  0
  1 21  1  0
  1 22  1  0
  1 23  1  0
  2 24  1  0
  2 25  1  0
  7 26  1  0
  7 27  1  0
  8 28  1  0
 11 29  1  0
 12 30  1  0
 14 31  1  0
 15 32  1  0
 16 33  1  0
 18 34  1  0
 18 35  1  0
 19 36  1  0
 19 37  1  0
 20 38  1  0
 20 39  1  0
M  END
>  <Energy>  (266) 
1146.8004136503107

>  <compound_id>  (266) 
60655

>  <target_id>  (266) 
1

>  <reference_id>  (266) 
116

>  <inspiration_ids>  (266) 
[123, 116]

>  <energy_score>  (266) 
1054.584623105949

>  <distance_score>  (266) 
3.6561162293995686

>  <path>  (266) 
/opt/xchem-fragalysis-2/maxwin/BulkDock/SCRATCH/511021/C60655-P116/C60655-P116.minimised.mol

>  <scratch_subdir>  (266) 
/opt/xchem-fragalysis-2/maxwin/BulkDock/SCRATCH/511021/C60655-P116

>  <fragmenstein_runtime>  (266) 
17.280320644378662

>  <fragmenstein_outcome>  (266) 
too moved

>  <fragmenstein_mode>  (266) 
expansion

>  <fragmenstein_error>  (266) 


$$$$
C60656-P123
     RDKit          3D

 47 48  0  0  0  0  0  0  0  0999 V2000
  -12.9912  -24.9443   26.2140 C   0  0  0  0  0  0  0  0  0  0  0  0
  -11.5985  -24.4215   26.4890 C   0  0  0  0  0  0  0  0  0  0  0  0
  -11.6974  -23.2590   27.3232 O   0  0  0  0  0  0  0  0  0  0  0  0
  -10.6270  -23.0610   28.1512 C   0  0  0  0  0  0  0  0  0  0  0  0
   -9.6010  -23.7228   28.0589 O   0  0  0  0  0  0  0  0  0  0  0  0
  -10.8728  -21.9950   29.2981 C   0  0  0  0  0  0  0  0  0  0  0  0
   -9.9381  -20.4059   29.2520 C   0  0  0  0  0  0  0  0  0  0  0  0
   -8.2953  -18.9428   28.8339 C   0  0  0  0  0  0  0  0  0  0  0  0
   -8.4878  -18.4295   27.8003 O   0  0  0  0  0  0  0  0  0  0  0  0
   -6.7055  -18.2335   29.8229 N   0  0  0  0  0  0  0  0  0  0  0  0
   -5.2852  -16.8720   29.2404 C   0  0  0  0  0  0  0  0  0  0  0  0
   -3.4673  -15.8500   28.7879 C   0  0  0  0  0  0  0  0  0  0  0  0
   -2.6508  -14.7109   27.6597 N   0  0  0  0  0  0  0  0  0  0  0  0
   -3.1299  -12.7904   27.1940 C   0  0  0  0  0  0  0  0  0  0  0  0
   -3.1164  -12.6101   29.0540 C   0  0  0  0  0  0  0  0  0  0  0  0
   -2.8437  -14.3852   29.5206 N   0  0  0  0  0  0  0  0  0  0  0  0
   -4.8812  -18.2120   27.6961 C   0  0  0  0  0  0  0  0  0  0  0  0
   -2.9830  -17.6844   27.1301 C   0  0  0  0  0  0  0  0  0  0  0  0
   -5.7358  -19.7083   26.8119 C   0  0  0  0  0  0  0  0  0  0  0  0
  -11.1976  -22.9279   30.7230 C   0  0  0  0  0  0  0  0  0  0  0  0
  -12.2913  -21.9592   31.0282 C   0  0  0  0  0  0  0  0  0  0  0  0
  -12.3655  -21.6874   29.5173 C   0  0  0  0  0  0  0  0  0  0  0  0
  -13.5421  -25.1004   27.1472 H   0  0  0  0  0  0  0  0  0  0  0  0
  -12.9507  -25.8896   25.6650 H   0  0  0  0  0  0  0  0  0  0  0  0
  -13.5567  -24.2242   25.6156 H   0  0  0  0  0  0  0  0  0  0  0  0
  -11.0271  -25.2195   26.9766 H   0  0  0  0  0  0  0  0  0  0  0  0
  -11.1111  -24.1501   25.5490 H   0  0  0  0  0  0  0  0  0  0  0  0
   -9.8459  -20.9250   28.2349 H   0  0  0  0  0  0  0  0  0  0  0  0
  -10.1753  -20.5416   30.3256 H   0  0  0  0  0  0  0  0  0  0  0  0
   -6.6716  -18.6771   30.7409 H   0  0  0  0  0  0  0  0  0  0  0  0
   -5.3034  -16.5380   30.2565 H   0  0  0  0  0  0  0  0  0  0  0  0
   -4.1039  -12.3107   27.1763 H   0  0  0  0  0  0  0  0  0  0  0  0
   -3.9904  -12.3087   29.6217 H   0  0  0  0  0  0  0  0  0  0  0  0
   -1.8982  -14.4635   29.2198 H   0  0  0  0  0  0  0  0  0  0  0  0
   -5.5166  -17.8580   27.0708 H   0  0  0  0  0  0  0  0  0  0  0  0
   -2.2493  -17.0863   27.5593 H   0  0  0  0  0  0  0  0  0  0  0  0
   -2.4300  -18.5629   26.7068 H   0  0  0  0  0  0  0  0  0  0  0  0
   -2.9505  -17.0259   26.2419 H   0  0  0  0  0  0  0  0  0  0  0  0
   -5.3569  -19.7959   25.7963 H   0  0  0  0  0  0  0  0  0  0  0  0
   -5.6305  -20.7255   27.2467 H   0  0  0  0  0  0  0  0  0  0  0  0
   -6.7939  -19.7806   26.9077 H   0  0  0  0  0  0  0  0  0  0  0  0
  -11.5554  -23.9430   30.4999 H   0  0  0  0  0  0  0  0  0  0  0  0
  -10.5018  -23.0069   31.5595 H   0  0  0  0  0  0  0  0  0  0  0  0
  -13.1909  -22.3791   31.4821 H   0  0  0  0  0  0  0  0  0  0  0  0
  -11.9183  -21.1652   31.6769 H   0  0  0  0  0  0  0  0  0  0  0  0
  -12.6528  -20.6993   29.1917 H   0  0  0  0  0  0  0  0  0  0  0  0
  -12.9953  -22.4476   29.0475 H   0  0  0  0  0  0  0  0  0  0  0  0
  1  2  1  0
  2  3  1  0
  3  4  1  0
  4  5  2  0
  4  6  1  0
  6  7  1  0
  7  8  1  0
  8  9  2  0
  8 10  1  0
 10 11  1  0
 11 12  1  0
 12 13  2  0
 13 14  1  0
 14 15  2  0
 15 16  1  0
 11 17  1  0
 17 18  1  0
 17 19  1  0
  6 20  1  0
 20 21  1  0
 21 22  1  0
 22  6  1  0
 16 12  1  0
  1 23  1  0
  1 24  1  0
  1 25  1  0
  2 26  1  0
  2 27  1  0
  7 28  1  0
  7 29  1  0
 10 30  1  0
 11 31  1  0
 14 32  1  0
 15 33  1  0
 16 34  1  0
 17 35  1  0
 18 36  1  0
 18 37  1  0
 18 38  1  0
 19 39  1  0
 19 40  1  0
 19 41  1  0
 20 42  1  0
 20 43  1  0
 21 44  1  0
 21 45  1  0
 22 46  1  0
 22 47  1  0
M  END
>  <Energy>  (267) 
1498.1593033885117

>  <compound_id>  (267) 
60656

>  <target_id>  (267) 
1

>  <reference_id>  (267) 
123

>  <inspiration_ids>  (267) 
[123, 116]

>  <energy_score>  (267) 
1476.951095909222

>  <distance_score>  (267) 
3.266629637591358

>  <path>  (267) 
/opt/xchem-fragalysis-2/maxwin/BulkDock/SCRATCH/511021/C60656-P123/C60656-P123.minimised.mol

>  <scratch_subdir>  (267) 
/opt/xchem-fragalysis-2/maxwin/BulkDock/SCRATCH/511021/C60656-P123

>  <fragmenstein_runtime>  (267) 
27.85061740875244

>  <fragmenstein_outcome>  (267) 
too moved

>  <fragmenstein_mode>  (267) 
expansion

>  <fragmenstein_error>  (267) 


$$$$
C60656-P116
     RDKit          3D

 47 48  0  0  0  0  0  0  0  0999 V2000
  -11.6932  -22.8049   27.6716 C   0  0  0  0  0  0  0  0  0  0  0  0
  -11.9855  -21.9678   28.8949 C   0  0  0  0  0  0  0  0  0  0  0  0
  -10.7952  -21.7034   29.6255 O   0  0  0  0  0  0  0  0  0  0  0  0
  -11.0049  -21.4193   30.9828 C   0  0  0  0  0  0  0  0  0  0  0  0
  -12.1417  -20.9987   31.1482 O   0  0  0  0  0  0  0  0  0  0  0  0
   -9.4714  -21.8856   32.4117 C   0  0  0  0  0  0  0  0  0  0  0  0
   -8.0297  -20.7213   33.4384 C   0  0  0  0  0  0  0  0  0  0  0  0
   -7.1843  -19.0840   32.4239 C   0  0  0  0  0  0  0  0  0  0  0  0
   -6.5766  -18.3670   33.2209 O   0  0  0  0  0  0  0  0  0  0  0  0
   -7.1650  -18.7999   30.5348 N   0  0  0  0  0  0  0  0  0  0  0  0
   -6.1577  -17.5328   29.3863 C   0  0  0  0  0  0  0  0  0  0  0  0
   -4.6443  -16.4357   29.3099 C   0  0  0  0  0  0  0  0  0  0  0  0
   -3.6588  -15.3537   29.8875 N   0  0  0  0  0  0  0  0  0  0  0  0
   -2.3885  -15.0250   29.0381 C   0  0  0  0  0  0  0  0  0  0  0  0
   -2.4526  -15.8327   27.9816 C   0  0  0  0  0  0  0  0  0  0  0  0
   -3.7319  -16.5561   28.1169 N   0  0  0  0  0  0  0  0  0  0  0  0
   -5.2165  -18.5668   27.8025 C   0  0  0  0  0  0  0  0  0  0  0  0
   -3.1674  -18.5754   27.3728 C   0  0  0  0  0  0  0  0  0  0  0  0
   -5.9710  -19.7514   26.6270 C   0  0  0  0  0  0  0  0  0  0  0  0
   -8.7965  -23.5572   33.2141 C   0  0  0  0  0  0  0  0  0  0  0  0
   -9.6033  -24.5896   32.5926 C   0  0  0  0  0  0  0  0  0  0  0  0
  -10.5233  -23.5325   32.2846 C   0  0  0  0  0  0  0  0  0  0  0  0
  -12.4990  -23.4924   27.4159 H   0  0  0  0  0  0  0  0  0  0  0  0
  -10.7699  -23.3808   27.7713 H   0  0  0  0  0  0  0  0  0  0  0  0
  -11.6285  -22.1346   26.8192 H   0  0  0  0  0  0  0  0  0  0  0  0
  -12.5020  -21.0476   28.6464 H   0  0  0  0  0  0  0  0  0  0  0  0
  -12.6186  -22.4937   29.5833 H   0  0  0  0  0  0  0  0  0  0  0  0
   -7.1799  -21.3735   33.6674 H   0  0  0  0  0  0  0  0  0  0  0  0
   -8.5661  -20.3250   34.3142 H   0  0  0  0  0  0  0  0  0  0  0  0
   -7.7636  -19.4195   30.1111 H   0  0  0  0  0  0  0  0  0  0  0  0
   -6.0426  -16.7353   30.1472 H   0  0  0  0  0  0  0  0  0  0  0  0
   -1.6371  -14.2947   29.3088 H   0  0  0  0  0  0  0  0  0  0  0  0
   -1.8571  -16.0609   27.1268 H   0  0  0  0  0  0  0  0  0  0  0  0
   -4.0562  -17.0672   27.3444 H   0  0  0  0  0  0  0  0  0  0  0  0
   -5.6384  -17.9094   27.2297 H   0  0  0  0  0  0  0  0  0  0  0  0
   -2.3752  -17.9878   27.8445 H   0  0  0  0  0  0  0  0  0  0  0  0
   -2.7419  -19.5266   27.0894 H   0  0  0  0  0  0  0  0  0  0  0  0
   -2.7647  -18.0484   26.4357 H   0  0  0  0  0  0  0  0  0  0  0  0
   -6.2261  -20.6519   27.2001 H   0  0  0  0  0  0  0  0  0  0  0  0
   -5.2227  -20.2878   25.8988 H   0  0  0  0  0  0  0  0  0  0  0  0
   -6.2285  -19.3536   25.6985 H   0  0  0  0  0  0  0  0  0  0  0  0
   -7.7882  -24.0696   33.1834 H   0  0  0  0  0  0  0  0  0  0  0  0
   -8.1642  -23.0817   34.0745 H   0  0  0  0  0  0  0  0  0  0  0  0
  -10.0733  -25.3936   33.1196 H   0  0  0  0  0  0  0  0  0  0  0  0
   -9.1011  -25.1057   31.7758 H   0  0  0  0  0  0  0  0  0  0  0  0
  -11.5051  -23.2869   32.4208 H   0  0  0  0  0  0  0  0  0  0  0  0
  -10.8037  -23.8656   31.3060 H   0  0  0  0  0  0  0  0  0  0  0  0
  1  2  1  0
  2  3  1  0
  3  4  1  0
  4  5  2  0
  4  6  1  0
  6  7  1  0
  7  8  1  0
  8  9  2  0
  8 10  1  0
 10 11  1  0
 11 12  1  0
 12 13  2  0
 13 14  1  0
 14 15  2  0
 15 16  1  0
 11 17  1  0
 17 18  1  0
 17 19  1  0
  6 20  1  0
 20 21  1  0
 21 22  1  0
 22  6  1  0
 16 12  1  0
  1 23  1  0
  1 24  1  0
  1 25  1  0
  2 26  1  0
  2 27  1  0
  7 28  1  0
  7 29  1  0
 10 30  1  0
 11 31  1  0
 14 32  1  0
 15 33  1  0
 16 34  1  0
 17 35  1  0
 18 36  1  0
 18 37  1  0
 18 38  1  0
 19 39  1  0
 19 40  1  0
 19 41  1  0
 20 42  1  0
 20 43  1  0
 21 44  1  0
 21 45  1  0
 22 46  1  0
 22 47  1  0
M  END
>  <Energy>  (268) 
1137.5909040081647

>  <compound_id>  (268) 
60656

>  <target_id>  (268) 
1

>  <reference_id>  (268) 
116

>  <inspiration_ids>  (268) 
[123, 116]

>  <energy_score>  (268) 
1116.382696528885

>  <distance_score>  (268) 
3.0859873856051787

>  <path>  (268) 
/opt/xchem-fragalysis-2/maxwin/BulkDock/SCRATCH/511021/C60656-P116/C60656-P116.minimised.mol

>  <scratch_subdir>  (268) 
/opt/xchem-fragalysis-2/maxwin/BulkDock/SCRATCH/511021/C60656-P116

>  <fragmenstein_runtime>  (268) 
20.002176761627197

>  <fragmenstein_outcome>  (268) 
too moved

>  <fragmenstein_mode>  (268) 
expansion

>  <fragmenstein_error>  (268) 


$$$$
C60657-P123
     RDKit          3D

 39 40  0  0  0  0  0  0  0  0999 V2000
  -12.4153  -17.8201   35.1976 C   0  0  0  0  0  0  0  0  0  0  0  0
  -11.4482  -16.8346   35.8524 C   0  0  0  0  0  0  0  0  0  0  0  0
  -10.4976  -16.2882   34.9131 O   0  0  0  0  0  0  0  0  0  0  0  0
   -9.1772  -16.6047   35.0869 C   0  0  0  0  0  0  0  0  0  0  0  0
   -8.7965  -17.3522   35.9869 O   0  0  0  0  0  0  0  0  0  0  0  0
   -8.1467  -15.7863   34.0428 C   0  0  0  0  0  0  0  0  0  0  0  0
   -7.1544  -16.8441   33.4787 C   0  0  0  0  0  0  0  0  0  0  0  0
   -6.0566  -17.1590   32.1357 C   0  0  0  0  0  0  0  0  0  0  0  0
   -5.8226  -18.6048   32.5464 N   0  0  0  0  0  0  0  0  0  0  0  0
   -5.5054  -16.3586   30.4120 C   0  0  0  0  0  0  0  0  0  0  0  0
   -3.8213  -16.0607   29.7061 C   0  0  0  0  0  0  0  0  0  0  0  0
   -2.7109  -15.7020   30.3917 C   0  0  0  0  0  0  0  0  0  0  0  0
   -2.0589  -14.9462   29.4688 N   0  0  0  0  0  0  0  0  0  0  0  0
   -2.4501  -15.2359   28.2059 C   0  0  0  0  0  0  0  0  0  0  0  0
   -3.4670  -16.1205   28.3676 N   0  0  0  0  0  0  0  0  0  0  0  0
   -7.5214  -14.6827   34.9640 C   0  0  0  0  0  0  0  0  0  0  0  0
   -8.6025  -13.7189   34.4520 C   0  0  0  0  0  0  0  0  0  0  0  0
   -8.8248  -14.6387   33.2429 C   0  0  0  0  0  0  0  0  0  0  0  0
  -11.9011  -18.6247   34.6748 H   0  0  0  0  0  0  0  0  0  0  0  0
  -13.0689  -18.2632   35.9556 H   0  0  0  0  0  0  0  0  0  0  0  0
  -13.0527  -17.3007   34.4754 H   0  0  0  0  0  0  0  0  0  0  0  0
  -12.0195  -15.9868   36.2461 H   0  0  0  0  0  0  0  0  0  0  0  0
  -10.9616  -17.3056   36.7113 H   0  0  0  0  0  0  0  0  0  0  0  0
   -7.8423  -17.6876   33.4009 H   0  0  0  0  0  0  0  0  0  0  0  0
   -6.6662  -17.2037   34.3823 H   0  0  0  0  0  0  0  0  0  0  0  0
   -6.8398  -17.6419   31.5672 H   0  0  0  0  0  0  0  0  0  0  0  0
   -6.6222  -18.9467   33.1075 H   0  0  0  0  0  0  0  0  0  0  0  0
   -6.0508  -19.3177   31.8324 H   0  0  0  0  0  0  0  0  0  0  0  0
   -5.8884  -15.3363   30.3318 H   0  0  0  0  0  0  0  0  0  0  0  0
   -5.7750  -17.0113   29.5868 H   0  0  0  0  0  0  0  0  0  0  0  0
   -2.3733  -15.8864   31.4158 H   0  0  0  0  0  0  0  0  0  0  0  0
   -1.1391  -14.6064   29.6634 H   0  0  0  0  0  0  0  0  0  0  0  0
   -1.9339  -15.0327   27.2999 H   0  0  0  0  0  0  0  0  0  0  0  0
   -7.5779  -14.8685   36.0438 H   0  0  0  0  0  0  0  0  0  0  0  0
   -6.4881  -14.4139   34.7770 H   0  0  0  0  0  0  0  0  0  0  0  0
   -8.2668  -12.7061   34.2164 H   0  0  0  0  0  0  0  0  0  0  0  0
   -9.4727  -13.6449   35.1148 H   0  0  0  0  0  0  0  0  0  0  0  0
   -8.3039  -14.2923   32.3485 H   0  0  0  0  0  0  0  0  0  0  0  0
   -9.8809  -14.7701   32.9954 H   0  0  0  0  0  0  0  0  0  0  0  0
  1  2  1  0
  2  3  1  0
  3  4  1  0
  4  5  2  0
  4  6  1  0
  6  7  1  0
  7  8  1  0
  8  9  1  0
  8 10  1  0
 10 11  1  0
 11 12  2  0
 12 13  1  0
 13 14  1  0
 14 15  2  0
  6 16  1  0
 16 17  1  0
 17 18  1  0
 18  6  1  0
 15 11  1  0
  1 19  1  0
  1 20  1  0
  1 21  1  0
  2 22  1  0
  2 23  1  0
  7 24  1  0
  7 25  1  0
  8 26  1  0
  9 27  1  0
  9 28  1  0
 10 29  1  0
 10 30  1  0
 12 31  1  0
 13 32  1  0
 14 33  1  0
 16 34  1  0
 16 35  1  0
 17 36  1  0
 17 37  1  0
 18 38  1  0
 18 39  1  0
M  END
>  <Energy>  (269) 
243.99915415964279

>  <compound_id>  (269) 
60657

>  <target_id>  (269) 
1

>  <reference_id>  (269) 
123

>  <inspiration_ids>  (269) 
[123, 116]

>  <energy_score>  (269) 
183.8507807372664

>  <distance_score>  (269) 
8.501095405122918

>  <path>  (269) 
/opt/xchem-fragalysis-2/maxwin/BulkDock/SCRATCH/511021/C60657-P123/C60657-P123.minimised.mol

>  <scratch_subdir>  (269) 
/opt/xchem-fragalysis-2/maxwin/BulkDock/SCRATCH/511021/C60657-P123

>  <fragmenstein_runtime>  (269) 
23.916549921035767

>  <fragmenstein_outcome>  (269) 
too moved

>  <fragmenstein_mode>  (269) 
expansion

>  <fragmenstein_error>  (269) 


$$$$
C60657-P116
     RDKit          3D

 39 40  0  0  0  0  0  0  0  0999 V2000
  -13.6436  -23.3128   25.1169 C   0  0  0  0  0  0  0  0  0  0  0  0
  -12.5590  -23.4808   26.1676 C   0  0  0  0  0  0  0  0  0  0  0  0
  -12.2519  -22.4203   27.1121 O   0  0  0  0  0  0  0  0  0  0  0  0
  -11.4655  -21.3537   26.6429 C   0  0  0  0  0  0  0  0  0  0  0  0
  -11.9071  -20.9502   25.5464 O   0  0  0  0  0  0  0  0  0  0  0  0
   -9.7193  -20.7722   27.7259 C   0  0  0  0  0  0  0  0  0  0  0  0
   -8.7510  -18.9068   28.1885 C   0  0  0  0  0  0  0  0  0  0  0  0
   -6.9870  -17.8059   28.4031 C   0  0  0  0  0  0  0  0  0  0  0  0
   -5.8868  -18.4702   27.5831 N   0  0  0  0  0  0  0  0  0  0  0  0
   -5.6887  -16.6377   29.3389 C   0  0  0  0  0  0  0  0  0  0  0  0
   -4.0031  -16.5160   28.3330 C   0  0  0  0  0  0  0  0  0  0  0  0
   -2.7438  -15.5571   28.3674 C   0  0  0  0  0  0  0  0  0  0  0  0
   -1.7402  -16.1728   27.6948 N   0  0  0  0  0  0  0  0  0  0  0  0
   -2.2497  -17.2669   27.1143 C   0  0  0  0  0  0  0  0  0  0  0  0
   -3.4143  -17.5595   27.6474 N   0  0  0  0  0  0  0  0  0  0  0  0
   -8.7720  -22.5420   27.9334 C   0  0  0  0  0  0  0  0  0  0  0  0
  -10.2319  -23.1297   28.2191 C   0  0  0  0  0  0  0  0  0  0  0  0
  -10.8380  -21.7367   28.9237 C   0  0  0  0  0  0  0  0  0  0  0  0
  -14.6041  -22.9947   25.5010 H   0  0  0  0  0  0  0  0  0  0  0  0
  -13.3439  -22.6059   24.3379 H   0  0  0  0  0  0  0  0  0  0  0  0
  -13.8618  -24.2733   24.6409 H   0  0  0  0  0  0  0  0  0  0  0  0
  -12.8096  -24.3535   26.7723 H   0  0  0  0  0  0  0  0  0  0  0  0
  -11.6324  -23.7532   25.6589 H   0  0  0  0  0  0  0  0  0  0  0  0
   -9.3097  -18.1379   27.6860 H   0  0  0  0  0  0  0  0  0  0  0  0
   -8.4035  -19.0193   29.1597 H   0  0  0  0  0  0  0  0  0  0  0  0
   -7.5750  -16.9519   27.9784 H   0  0  0  0  0  0  0  0  0  0  0  0
   -6.0574  -19.4407   27.3489 H   0  0  0  0  0  0  0  0  0  0  0  0
   -4.8932  -18.2351   27.5243 H   0  0  0  0  0  0  0  0  0  0  0  0
   -6.1760  -15.6659   29.1746 H   0  0  0  0  0  0  0  0  0  0  0  0
   -5.6194  -16.5305   30.3787 H   0  0  0  0  0  0  0  0  0  0  0  0
   -2.5001  -14.7315   29.0134 H   0  0  0  0  0  0  0  0  0  0  0  0
   -0.7591  -16.0382   27.8936 H   0  0  0  0  0  0  0  0  0  0  0  0
   -1.7208  -17.8797   26.4068 H   0  0  0  0  0  0  0  0  0  0  0  0
   -8.3080  -23.0509   27.0679 H   0  0  0  0  0  0  0  0  0  0  0  0
   -7.8591  -22.6912   28.4915 H   0  0  0  0  0  0  0  0  0  0  0  0
  -10.4007  -24.0585   28.7510 H   0  0  0  0  0  0  0  0  0  0  0  0
  -10.5298  -23.5405   27.2615 H   0  0  0  0  0  0  0  0  0  0  0  0
  -10.7940  -21.5145   29.9848 H   0  0  0  0  0  0  0  0  0  0  0  0
  -11.9217  -21.5480   28.8928 H   0  0  0  0  0  0  0  0  0  0  0  0
  1  2  1  0
  2  3  1  0
  3  4  1  0
  4  5  2  0
  4  6  1  0
  6  7  1  0
  7  8  1  0
  8  9  1  0
  8 10  1  0
 10 11  1  0
 11 12  2  0
 12 13  1  0
 13 14  1  0
 14 15  2  0
  6 16  1  0
 16 17  1  0
 17 18  1  0
 18  6  1  0
 15 11  1  0
  1 19  1  0
  1 20  1  0
  1 21  1  0
  2 22  1  0
  2 23  1  0
  7 24  1  0
  7 25  1  0
  8 26  1  0
  9 27  1  0
  9 28  1  0
 10 29  1  0
 10 30  1  0
 12 31  1  0
 13 32  1  0
 14 33  1  0
 16 34  1  0
 16 35  1  0
 17 36  1  0
 17 37  1  0
 18 38  1  0
 18 39  1  0
M  END
>  <Energy>  (270) 
690.46445248574503

>  <compound_id>  (270) 
60657

>  <target_id>  (270) 
1

>  <reference_id>  (270) 
116

>  <inspiration_ids>  (270) 
[123, 116]

>  <energy_score>  (270) 
630.3160790633754

>  <distance_score>  (270) 
4.8562441398010465

>  <path>  (270) 
/opt/xchem-fragalysis-2/maxwin/BulkDock/SCRATCH/511021/C60657-P116/C60657-P116.minimised.mol

>  <scratch_subdir>  (270) 
/opt/xchem-fragalysis-2/maxwin/BulkDock/SCRATCH/511021/C60657-P116

>  <fragmenstein_runtime>  (270) 
15.872830152511597

>  <fragmenstein_outcome>  (270) 
too moved

>  <fragmenstein_mode>  (270) 
expansion

>  <fragmenstein_error>  (270) 


$$$$
C60659-P123
     RDKit          3D

 41 42  0  0  0  0  0  0  0  0999 V2000
  -11.9006  -22.9114   30.0821 C   0  0  0  0  0  0  0  0  0  0  0  0
  -11.7486  -21.5562   30.7927 C   0  0  0  0  0  0  0  0  0  0  0  0
  -10.3923  -21.0948   31.1234 O   0  0  0  0  0  0  0  0  0  0  0  0
   -9.9817  -20.5900   32.4016 C   0  0  0  0  0  0  0  0  0  0  0  0
  -10.6909  -19.7641   32.9488 O   0  0  0  0  0  0  0  0  0  0  0  0
   -8.3694  -21.4484   33.1239 C   0  0  0  0  0  0  0  0  0  0  0  0
   -6.5326  -20.3926   32.8660 C   0  0  0  0  0  0  0  0  0  0  0  0
   -5.5624  -20.9990   32.5222 O   0  0  0  0  0  0  0  0  0  0  0  0
   -6.5360  -18.5380   33.0249 N   0  0  0  0  0  0  0  0  0  0  0  0
   -5.2075  -17.2182   32.5885 C   0  0  0  0  0  0  0  0  0  0  0  0
   -3.3169  -16.5640   32.1012 C   0  0  0  0  0  0  0  0  0  0  0  0
   -3.2288  -15.9212   30.1089 C   0  0  0  0  0  0  0  0  0  0  0  0
   -3.2565  -16.3385   28.2097 C   0  0  0  0  0  0  0  0  0  0  0  0
   -2.2298  -15.8164   27.3877 C   0  0  0  0  0  0  0  0  0  0  0  0
   -2.5871  -16.6757   26.1545 N   0  0  0  0  0  0  0  0  0  0  0  0
   -2.1055  -17.7964   26.5790 C   0  0  0  0  0  0  0  0  0  0  0  0
   -2.9208  -17.6353   27.5704 N   0  0  0  0  0  0  0  0  0  0  0  0
   -8.1269  -23.0461   33.4338 C   0  0  0  0  0  0  0  0  0  0  0  0
   -9.1215  -24.0600   33.0024 C   0  0  0  0  0  0  0  0  0  0  0  0
   -9.7885  -22.8910   32.5345 C   0  0  0  0  0  0  0  0  0  0  0  0
  -12.9067  -22.9919   29.6574 H   0  0  0  0  0  0  0  0  0  0  0  0
  -11.7971  -23.7599   30.7626 H   0  0  0  0  0  0  0  0  0  0  0  0
  -11.1833  -23.0212   29.2651 H   0  0  0  0  0  0  0  0  0  0  0  0
  -12.0845  -20.9024   29.9954 H   0  0  0  0  0  0  0  0  0  0  0  0
  -12.3814  -21.5239   31.6828 H   0  0  0  0  0  0  0  0  0  0  0  0
   -7.4697  -18.2283   33.2440 H   0  0  0  0  0  0  0  0  0  0  0  0
   -5.7323  -16.8591   31.7020 H   0  0  0  0  0  0  0  0  0  0  0  0
   -5.6127  -16.4286   33.2309 H   0  0  0  0  0  0  0  0  0  0  0  0
   -2.5964  -17.3814   32.1666 H   0  0  0  0  0  0  0  0  0  0  0  0
   -2.9656  -15.7711   32.7520 H   0  0  0  0  0  0  0  0  0  0  0  0
   -4.3232  -15.9698   29.9203 H   0  0  0  0  0  0  0  0  0  0  0  0
   -2.6817  -15.0241   29.9207 H   0  0  0  0  0  0  0  0  0  0  0  0
   -1.7499  -14.8901   27.3602 H   0  0  0  0  0  0  0  0  0  0  0  0
   -2.6669  -16.3016   25.2137 H   0  0  0  0  0  0  0  0  0  0  0  0
   -1.6589  -18.6788   26.1516 H   0  0  0  0  0  0  0  0  0  0  0  0
   -7.4869  -23.3999   32.6564 H   0  0  0  0  0  0  0  0  0  0  0  0
   -7.9504  -23.2801   34.4595 H   0  0  0  0  0  0  0  0  0  0  0  0
   -9.6688  -24.7082   33.6861 H   0  0  0  0  0  0  0  0  0  0  0  0
   -8.8099  -24.7531   32.2040 H   0  0  0  0  0  0  0  0  0  0  0  0
  -10.8228  -22.8924   32.9637 H   0  0  0  0  0  0  0  0  0  0  0  0
  -10.0849  -23.1997   31.5441 H   0  0  0  0  0  0  0  0  0  0  0  0
  1  2  1  0
  2  3  1  0
  3  4  1  0
  4  5  2  0
  4  6  1  0
  6  7  1  0
  7  8  2  0
  7  9  1  0
  9 10  1  0
 10 11  1  0
 11 12  1  0
 12 13  1  0
 13 14  2  0
 14 15  1  0
 15 16  1  0
 16 17  2  0
  6 18  1  0
 18 19  1  0
 19 20  1  0
 20  6  1  0
 17 13  1  0
  1 21  1  0
  1 22  1  0
  1 23  1  0
  2 24  1  0
  2 25  1  0
  9 26  1  0
 10 27  1  0
 10 28  1  0
 11 29  1  0
 11 30  1  0
 12 31  1  0
 12 32  1  0
 14 33  1  0
 15 34  1  0
 16 35  1  0
 18 36  1  0
 18 37  1  0
 19 38  1  0
 19 39  1  0
 20 40  1  0
 20 41  1  0
M  END
>  <Energy>  (271) 
808.11179250365615

>  <compound_id>  (271) 
60659

>  <target_id>  (271) 
1

>  <reference_id>  (271) 
123

>  <inspiration_ids>  (271) 
[123, 116]

>  <energy_score>  (271) 
784.021461384508

>  <distance_score>  (271) 
4.008348472762438

>  <path>  (271) 
/opt/xchem-fragalysis-2/maxwin/BulkDock/SCRATCH/511021/C60659-P123/C60659-P123.minimised.mol

>  <scratch_subdir>  (271) 
/opt/xchem-fragalysis-2/maxwin/BulkDock/SCRATCH/511021/C60659-P123

>  <fragmenstein_runtime>  (271) 
20.883411169052124

>  <fragmenstein_outcome>  (271) 
too moved

>  <fragmenstein_mode>  (271) 
expansion

>  <fragmenstein_error>  (271) 


$$$$
C60659-P116
     RDKit          3D

 41 42  0  0  0  0  0  0  0  0999 V2000
  -11.6165  -23.5604   27.3477 C   0  0  0  0  0  0  0  0  0  0  0  0
  -11.6637  -22.2404   28.0972 C   0  0  0  0  0  0  0  0  0  0  0  0
  -10.8717  -22.2567   29.2994 O   0  0  0  0  0  0  0  0  0  0  0  0
  -11.1806  -21.4899   30.4396 C   0  0  0  0  0  0  0  0  0  0  0  0
  -12.2149  -20.8594   30.3136 O   0  0  0  0  0  0  0  0  0  0  0  0
   -9.9363  -21.6973   32.0834 C   0  0  0  0  0  0  0  0  0  0  0  0
   -7.8901  -21.6001   31.4078 C   0  0  0  0  0  0  0  0  0  0  0  0
   -7.6412  -22.6546   29.8170 O   0  0  0  0  0  0  0  0  0  0  0  0
   -6.7426  -20.7173   32.5380 N   0  0  0  0  0  0  0  0  0  0  0  0
   -5.1832  -20.6573   32.6220 C   0  0  0  0  0  0  0  0  0  0  0  0
   -4.6147  -19.6824   33.9638 C   0  0  0  0  0  0  0  0  0  0  0  0
   -3.4752  -18.6230   33.6707 C   0  0  0  0  0  0  0  0  0  0  0  0
   -2.5372  -17.9509   34.6006 C   0  0  0  0  0  0  0  0  0  0  0  0
   -2.0195  -16.6764   34.4022 C   0  0  0  0  0  0  0  0  0  0  0  0
   -0.9929  -16.5538   35.2875 N   0  0  0  0  0  0  0  0  0  0  0  0
   -0.9228  -17.7333   35.9717 C   0  0  0  0  0  0  0  0  0  0  0  0
   -1.8300  -18.5982   35.5720 N   0  0  0  0  0  0  0  0  0  0  0  0
   -9.2936  -23.4839   32.8325 C   0  0  0  0  0  0  0  0  0  0  0  0
   -9.9795  -24.4674   32.1965 C   0  0  0  0  0  0  0  0  0  0  0  0
  -10.9820  -23.3550   32.0077 C   0  0  0  0  0  0  0  0  0  0  0  0
  -10.8575  -24.2400   27.7415 H   0  0  0  0  0  0  0  0  0  0  0  0
  -11.4243  -23.4139   26.2842 H   0  0  0  0  0  0  0  0  0  0  0  0
  -12.5959  -24.0303   27.3378 H   0  0  0  0  0  0  0  0  0  0  0  0
  -11.1941  -21.5492   27.4250 H   0  0  0  0  0  0  0  0  0  0  0  0
  -12.6632  -21.8663   28.2693 H   0  0  0  0  0  0  0  0  0  0  0  0
   -7.2829  -20.3485   33.3140 H   0  0  0  0  0  0  0  0  0  0  0  0
   -5.0645  -21.6188   33.1607 H   0  0  0  0  0  0  0  0  0  0  0  0
   -4.4721  -20.8632   31.8237 H   0  0  0  0  0  0  0  0  0  0  0  0
   -4.2724  -20.3665   34.7420 H   0  0  0  0  0  0  0  0  0  0  0  0
   -5.4885  -19.1571   34.3681 H   0  0  0  0  0  0  0  0  0  0  0  0
   -2.7885  -19.0832   32.9509 H   0  0  0  0  0  0  0  0  0  0  0  0
   -3.9831  -17.7572   33.2224 H   0  0  0  0  0  0  0  0  0  0  0  0
   -2.2593  -15.9005   33.6891 H   0  0  0  0  0  0  0  0  0  0  0  0
   -0.3764  -15.7594   35.4073 H   0  0  0  0  0  0  0  0  0  0  0  0
   -0.1845  -17.9063   36.7430 H   0  0  0  0  0  0  0  0  0  0  0  0
   -9.8561  -23.7293   33.6071 H   0  0  0  0  0  0  0  0  0  0  0  0
   -8.3127  -23.8222   33.2468 H   0  0  0  0  0  0  0  0  0  0  0  0
   -9.2642  -24.9011   31.5046 H   0  0  0  0  0  0  0  0  0  0  0  0
  -10.1921  -25.2850   32.8907 H   0  0  0  0  0  0  0  0  0  0  0  0
  -11.9067  -23.0633   31.5908 H   0  0  0  0  0  0  0  0  0  0  0  0
  -10.8771  -23.7487   31.0225 H   0  0  0  0  0  0  0  0  0  0  0  0
  1  2  1  0
  2  3  1  0
  3  4  1  0
  4  5  2  0
  4  6  1  0
  6  7  1  0
  7  8  2  0
  7  9  1  0
  9 10  1  0
 10 11  1  0
 11 12  1  0
 12 13  1  0
 13 14  2  0
 14 15  1  0
 15 16  1  0
 16 17  2  0
  6 18  1  0
 18 19  1  0
 19 20  1  0
 20  6  1  0
 17 13  1  0
  1 21  1  0
  1 22  1  0
  1 23  1  0
  2 24  1  0
  2 25  1  0
  9 26  1  0
 10 27  1  0
 10 28  1  0
 11 29  1  0
 11 30  1  0
 12 31  1  0
 12 32  1  0
 14 33  1  0
 15 34  1  0
 16 35  1  0
 18 36  1  0
 18 37  1  0
 19 38  1  0
 19 39  1  0
 20 40  1  0
 20 41  1  0
M  END
>  <Energy>  (272) 
766.72791710678916

>  <compound_id>  (272) 
60659

>  <target_id>  (272) 
1

>  <reference_id>  (272) 
116

>  <inspiration_ids>  (272) 
[123, 116]

>  <energy_score>  (272) 
742.6375859876334

>  <distance_score>  (272) 
5.457076996408056

>  <path>  (272) 
/opt/xchem-fragalysis-2/maxwin/BulkDock/SCRATCH/511021/C60659-P116/C60659-P116.minimised.mol

>  <scratch_subdir>  (272) 
/opt/xchem-fragalysis-2/maxwin/BulkDock/SCRATCH/511021/C60659-P116

>  <fragmenstein_runtime>  (272) 
14.142794609069824

>  <fragmenstein_outcome>  (272) 
too moved

>  <fragmenstein_mode>  (272) 
expansion

>  <fragmenstein_error>  (272) 


$$$$
C60660-P123
     RDKit          3D

 42 43  0  0  0  0  0  0  0  0999 V2000
  -11.5150  -24.1979   30.5401 C   0  0  0  0  0  0  0  0  0  0  0  0
  -12.2306  -22.8964   30.2336 C   0  0  0  0  0  0  0  0  0  0  0  0
  -12.9463  -22.4194   31.3831 O   0  0  0  0  0  0  0  0  0  0  0  0
  -12.2958  -21.5880   32.2546 C   0  0  0  0  0  0  0  0  0  0  0  0
  -11.1388  -21.2426   32.0422 O   0  0  0  0  0  0  0  0  0  0  0  0
  -13.3061  -21.1215   33.4860 C   0  0  0  0  0  0  0  0  0  0  0  0
  -12.6891  -19.9670   34.3845 C   0  0  0  0  0  0  0  0  0  0  0  0
  -13.4918  -18.7489   34.9401 C   0  0  0  0  0  0  0  0  0  0  0  0
  -13.2553  -17.4797   34.2270 N   0  0  0  0  0  0  0  0  0  0  0  0
  -13.3888  -16.0962   34.6657 C   0  0  0  0  0  0  0  0  0  0  0  0
  -13.6498  -15.6382   35.7481 O   0  0  0  0  0  0  0  0  0  0  0  0
  -13.2534  -15.1028   33.4215 C   0  0  0  0  0  0  0  0  0  0  0  0
  -14.4733  -14.3113   33.4956 O   0  0  0  0  0  0  0  0  0  0  0  0
  -12.0724  -14.1811   33.1747 C   0  0  0  0  0  0  0  0  0  0  0  0
  -11.6800  -13.0229   33.8242 C   0  0  0  0  0  0  0  0  0  0  0  0
  -10.8381  -12.3661   32.9578 N   0  0  0  0  0  0  0  0  0  0  0  0
  -10.6802  -13.1479   31.8547 C   0  0  0  0  0  0  0  0  0  0  0  0
  -11.4244  -14.2247   31.9394 N   0  0  0  0  0  0  0  0  0  0  0  0
  -13.6566  -22.3987   34.2994 C   0  0  0  0  0  0  0  0  0  0  0  0
  -15.1482  -22.0753   34.1795 C   0  0  0  0  0  0  0  0  0  0  0  0
  -14.8277  -21.0474   33.1014 C   0  0  0  0  0  0  0  0  0  0  0  0
  -10.9773  -24.5643   29.6612 H   0  0  0  0  0  0  0  0  0  0  0  0
  -10.8071  -24.0704   31.3651 H   0  0  0  0  0  0  0  0  0  0  0  0
  -12.2229  -24.9664   30.8592 H   0  0  0  0  0  0  0  0  0  0  0  0
  -11.5437  -22.1337   29.8514 H   0  0  0  0  0  0  0  0  0  0  0  0
  -12.9703  -23.0763   29.4477 H   0  0  0  0  0  0  0  0  0  0  0  0
  -11.8185  -19.5692   33.8613 H   0  0  0  0  0  0  0  0  0  0  0  0
  -12.3068  -20.4676   35.2652 H   0  0  0  0  0  0  0  0  0  0  0  0
  -14.5684  -18.9318   34.9433 H   0  0  0  0  0  0  0  0  0  0  0  0
  -13.1947  -18.5608   35.9781 H   0  0  0  0  0  0  0  0  0  0  0  0
  -12.9426  -17.4916   33.2615 H   0  0  0  0  0  0  0  0  0  0  0  0
  -13.3697  -15.6756   32.5020 H   0  0  0  0  0  0  0  0  0  0  0  0
  -14.4592  -13.9463   34.4004 H   0  0  0  0  0  0  0  0  0  0  0  0
  -12.0034  -12.5745   34.7523 H   0  0  0  0  0  0  0  0  0  0  0  0
  -10.4323  -11.4521   33.0973 H   0  0  0  0  0  0  0  0  0  0  0  0
  -10.0425  -12.8805   31.0228 H   0  0  0  0  0  0  0  0  0  0  0  0
  -13.2031  -22.4106   35.2871 H   0  0  0  0  0  0  0  0  0  0  0  0
  -13.3892  -23.3456   33.8152 H   0  0  0  0  0  0  0  0  0  0  0  0
  -15.7776  -22.9092   33.8565 H   0  0  0  0  0  0  0  0  0  0  0  0
  -15.6132  -21.6252   35.0562 H   0  0  0  0  0  0  0  0  0  0  0  0
  -15.3271  -20.0848   33.2344 H   0  0  0  0  0  0  0  0  0  0  0  0
  -15.0756  -21.3961   32.0930 H   0  0  0  0  0  0  0  0  0  0  0  0
  1  2  1  0
  2  3  1  0
  3  4  1  0
  4  5  2  0
  4  6  1  0
  6  7  1  0
  7  8  1  0
  8  9  1  0
  9 10  1  0
 10 11  2  0
 10 12  1  0
 12 13  1  0
 12 14  1  0
 14 15  2  0
 15 16  1  0
 16 17  1  0
 17 18  2  0
  6 19  1  0
 19 20  1  0
 20 21  1  0
 21  6  1  0
 18 14  1  0
  1 22  1  0
  1 23  1  0
  1 24  1  0
  2 25  1  0
  2 26  1  0
  7 27  1  0
  7 28  1  0
  8 29  1  0
  8 30  1  0
  9 31  1  0
 12 32  1  0
 13 33  1  0
 15 34  1  0
 16 35  1  0
 17 36  1  0
 19 37  1  0
 19 38  1  0
 20 39  1  0
 20 40  1  0
 21 41  1  0
 21 42  1  0
M  END
>  <Energy>  (273) 
87.605969524246802

>  <compound_id>  (273) 
60660

>  <target_id>  (273) 
1

>  <reference_id>  (273) 
123

>  <inspiration_ids>  (273) 
[123, 116]

>  <energy_score>  (273) 
-0.6676764967922963

>  <distance_score>  (273) 
7.679806799226509

>  <path>  (273) 
/opt/xchem-fragalysis-2/maxwin/BulkDock/SCRATCH/511021/C60660-P123/C60660-P123.minimised.mol

>  <scratch_subdir>  (273) 
/opt/xchem-fragalysis-2/maxwin/BulkDock/SCRATCH/511021/C60660-P123

>  <fragmenstein_runtime>  (273) 
26.09294557571411

>  <fragmenstein_outcome>  (273) 
too moved

>  <fragmenstein_mode>  (273) 
expansion

>  <fragmenstein_error>  (273) 


$$$$
C60660-P116
     RDKit          3D

 42 43  0  0  0  0  0  0  0  0999 V2000
  -11.6394  -22.8568   27.6549 C   0  0  0  0  0  0  0  0  0  0  0  0
  -11.9739  -21.9874   28.8408 C   0  0  0  0  0  0  0  0  0  0  0  0
  -10.8333  -21.6517   29.6190 O   0  0  0  0  0  0  0  0  0  0  0  0
  -11.1341  -21.3658   30.9491 C   0  0  0  0  0  0  0  0  0  0  0  0
  -12.2956  -21.0062   31.0450 O   0  0  0  0  0  0  0  0  0  0  0  0
   -9.7070  -21.7211   32.4348 C   0  0  0  0  0  0  0  0  0  0  0  0
   -8.9425  -20.1869   33.7055 C   0  0  0  0  0  0  0  0  0  0  0  0
   -7.9306  -18.5524   32.8374 C   0  0  0  0  0  0  0  0  0  0  0  0
   -6.9810  -18.1713   31.1559 N   0  0  0  0  0  0  0  0  0  0  0  0
   -6.0356  -16.6231   30.5458 C   0  0  0  0  0  0  0  0  0  0  0  0
   -6.0739  -15.6397   31.1889 O   0  0  0  0  0  0  0  0  0  0  0  0
   -4.7199  -16.3984   29.0543 C   0  0  0  0  0  0  0  0  0  0  0  0
   -4.1441  -17.2699   28.0004 O   0  0  0  0  0  0  0  0  0  0  0  0
   -2.9754  -15.2797   28.9298 C   0  0  0  0  0  0  0  0  0  0  0  0
   -2.3248  -13.9716   29.0996 C   0  0  0  0  0  0  0  0  0  0  0  0
   -1.0070  -14.0099   28.8702 N   0  0  0  0  0  0  0  0  0  0  0  0
   -0.8187  -15.2494   28.4279 C   0  0  0  0  0  0  0  0  0  0  0  0
   -1.9405  -15.8942   28.1511 N   0  0  0  0  0  0  0  0  0  0  0  0
   -8.9577  -23.4662   33.1553 C   0  0  0  0  0  0  0  0  0  0  0  0
   -9.7855  -24.4582   32.5424 C   0  0  0  0  0  0  0  0  0  0  0  0
  -10.7382  -23.3819   32.2900 C   0  0  0  0  0  0  0  0  0  0  0  0
  -12.4217  -23.5825   27.4305 H   0  0  0  0  0  0  0  0  0  0  0  0
  -11.6126  -22.2190   26.7770 H   0  0  0  0  0  0  0  0  0  0  0  0
  -10.6950  -23.3910   27.7776 H   0  0  0  0  0  0  0  0  0  0  0  0
  -12.5186  -21.0976   28.5493 H   0  0  0  0  0  0  0  0  0  0  0  0
  -12.6034  -22.5293   29.5159 H   0  0  0  0  0  0  0  0  0  0  0  0
   -8.1422  -20.7151   34.2525 H   0  0  0  0  0  0  0  0  0  0  0  0
   -9.6639  -19.7290   34.3706 H   0  0  0  0  0  0  0  0  0  0  0  0
   -8.0865  -17.6145   33.4078 H   0  0  0  0  0  0  0  0  0  0  0  0
   -6.9827  -18.8489   33.3272 H   0  0  0  0  0  0  0  0  0  0  0  0
   -6.9227  -18.8938   30.4447 H   0  0  0  0  0  0  0  0  0  0  0  0
   -4.4354  -16.7660   30.0329 H   0  0  0  0  0  0  0  0  0  0  0  0
   -3.2008  -17.0699   27.8154 H   0  0  0  0  0  0  0  0  0  0  0  0
   -2.7211  -12.9927   29.3810 H   0  0  0  0  0  0  0  0  0  0  0  0
   -0.3206  -13.2739   28.9816 H   0  0  0  0  0  0  0  0  0  0  0  0
    0.1912  -15.5265   28.2157 H   0  0  0  0  0  0  0  0  0  0  0  0
   -8.0051  -24.0770   33.1378 H   0  0  0  0  0  0  0  0  0  0  0  0
   -8.2437  -23.0272   33.9877 H   0  0  0  0  0  0  0  0  0  0  0  0
  -10.1405  -25.3094   33.0883 H   0  0  0  0  0  0  0  0  0  0  0  0
   -9.2476  -24.9435   31.7297 H   0  0  0  0  0  0  0  0  0  0  0  0
  -10.8389  -23.8146   31.3013 H   0  0  0  0  0  0  0  0  0  0  0  0
  -11.7002  -23.1207   31.9900 H   0  0  0  0  0  0  0  0  0  0  0  0
  1  2  1  0
  2  3  1  0
  3  4  1  0
  4  5  2  0
  4  6  1  0
  6  7  1  0
  7  8  1  0
  8  9  1  0
  9 10  1  0
 10 11  2  0
 10 12  1  0
 12 13  1  0
 12 14  1  0
 14 15  2  0
 15 16  1  0
 16 17  1  0
 17 18  2  0
  6 19  1  0
 19 20  1  0
 20 21  1  0
 21  6  1  0
 18 14  1  0
  1 22  1  0
  1 23  1  0
  1 24  1  0
  2 25  1  0
  2 26  1  0
  7 27  1  0
  7 28  1  0
  8 29  1  0
  8 30  1  0
  9 31  1  0
 12 32  1  0
 13 33  1  0
 15 34  1  0
 16 35  1  0
 17 36  1  0
 19 37  1  0
 19 38  1  0
 20 39  1  0
 20 40  1  0
 21 41  1  0
 21 42  1  0
M  END
>  <Energy>  (274) 
946.38470148817555

>  <compound_id>  (274) 
60660

>  <target_id>  (274) 
1

>  <reference_id>  (274) 
116

>  <inspiration_ids>  (274) 
[123, 116]

>  <energy_score>  (274) 
858.1110554671536

>  <distance_score>  (274) 
2.915266792243111

>  <path>  (274) 
/opt/xchem-fragalysis-2/maxwin/BulkDock/SCRATCH/511021/C60660-P116/C60660-P116.minimised.mol

>  <scratch_subdir>  (274) 
/opt/xchem-fragalysis-2/maxwin/BulkDock/SCRATCH/511021/C60660-P116

>  <fragmenstein_runtime>  (274) 
17.197837352752686

>  <fragmenstein_outcome>  (274) 
too moved

>  <fragmenstein_mode>  (274) 
expansion

>  <fragmenstein_error>  (274) 


$$$$
C60661-P123
     RDKit          3D

 44 45  0  0  0  0  0  0  0  0999 V2000
  -13.8001  -22.0494   32.6307 C   0  0  0  0  0  0  0  0  0  0  0  0
  -12.6888  -21.4464   33.4572 C   0  0  0  0  0  0  0  0  0  0  0  0
  -11.5827  -20.9849   32.6527 O   0  0  0  0  0  0  0  0  0  0  0  0
  -10.9245  -21.8376   31.7942 C   0  0  0  0  0  0  0  0  0  0  0  0
  -11.0816  -21.6493   30.5904 O   0  0  0  0  0  0  0  0  0  0  0  0
   -9.9269  -23.0234   32.5954 C   0  0  0  0  0  0  0  0  0  0  0  0
   -8.3287  -22.2640   33.4024 C   0  0  0  0  0  0  0  0  0  0  0  0
   -7.2751  -20.6450   33.2695 C   0  0  0  0  0  0  0  0  0  0  0  0
   -6.1824  -20.9129   32.8558 O   0  0  0  0  0  0  0  0  0  0  0  0
   -7.7808  -18.9272   33.5142 N   0  0  0  0  0  0  0  0  0  0  0  0
   -6.9172  -17.3034   33.0911 C   0  0  0  0  0  0  0  0  0  0  0  0
   -5.9341  -16.1457   31.7583 C   0  0  0  0  0  0  0  0  0  0  0  0
   -5.5419  -16.4787   30.0634 C   0  0  0  0  0  0  0  0  0  0  0  0
   -6.4851  -14.3410   30.9939 C   0  0  0  0  0  0  0  0  0  0  0  0
   -6.8712  -13.1473   31.6369 N   0  0  0  0  0  0  0  0  0  0  0  0
   -5.8763  -11.8711   31.4097 C   0  0  0  0  0  0  0  0  0  0  0  0
   -5.0820  -12.3341   30.4058 C   0  0  0  0  0  0  0  0  0  0  0  0
   -5.5967  -13.6244   30.1205 N   0  0  0  0  0  0  0  0  0  0  0  0
   -9.6728  -24.4242   31.8014 C   0  0  0  0  0  0  0  0  0  0  0  0
  -10.1894  -25.1887   33.0034 C   0  0  0  0  0  0  0  0  0  0  0  0
  -11.0898  -24.0260   33.2795 C   0  0  0  0  0  0  0  0  0  0  0  0
  -13.4186  -22.6075   31.7754 H   0  0  0  0  0  0  0  0  0  0  0  0
  -14.4106  -22.6948   33.2691 H   0  0  0  0  0  0  0  0  0  0  0  0
  -14.4687  -21.2771   32.2426 H   0  0  0  0  0  0  0  0  0  0  0  0
  -12.3559  -22.1267   34.2354 H   0  0  0  0  0  0  0  0  0  0  0  0
  -13.0736  -20.5763   34.0005 H   0  0  0  0  0  0  0  0  0  0  0  0
   -8.1375  -22.9402   34.2184 H   0  0  0  0  0  0  0  0  0  0  0  0
   -7.7584  -22.9336   32.7699 H   0  0  0  0  0  0  0  0  0  0  0  0
   -8.7400  -18.9124   33.7796 H   0  0  0  0  0  0  0  0  0  0  0  0
   -6.9919  -16.7427   34.0201 H   0  0  0  0  0  0  0  0  0  0  0  0
   -6.0527  -17.9148   32.9440 H   0  0  0  0  0  0  0  0  0  0  0  0
   -5.0716  -16.2221   32.4369 H   0  0  0  0  0  0  0  0  0  0  0  0
   -5.7884  -17.4375   29.6658 H   0  0  0  0  0  0  0  0  0  0  0  0
   -6.0335  -15.8331   29.3487 H   0  0  0  0  0  0  0  0  0  0  0  0
   -4.5290  -16.2452   29.7548 H   0  0  0  0  0  0  0  0  0  0  0  0
   -6.0807  -10.9424   31.9362 H   0  0  0  0  0  0  0  0  0  0  0  0
   -4.1985  -12.0454   29.8676 H   0  0  0  0  0  0  0  0  0  0  0  0
   -4.7582  -14.0831   30.0514 H   0  0  0  0  0  0  0  0  0  0  0  0
  -10.2963  -24.5572   30.9075 H   0  0  0  0  0  0  0  0  0  0  0  0
   -8.6661  -24.7544   31.5725 H   0  0  0  0  0  0  0  0  0  0  0  0
  -10.7101  -26.1181   32.7705 H   0  0  0  0  0  0  0  0  0  0  0  0
   -9.4410  -25.3453   33.7805 H   0  0  0  0  0  0  0  0  0  0  0  0
  -12.0046  -24.1036   32.6752 H   0  0  0  0  0  0  0  0  0  0  0  0
  -11.4379  -23.9429   34.3042 H   0  0  0  0  0  0  0  0  0  0  0  0
  1  2  1  0
  2  3  1  0
  3  4  1  0
  4  5  2  0
  4  6  1  0
  6  7  1  0
  7  8  1  0
  8  9  2  0
  8 10  1  0
 10 11  1  0
 11 12  1  0
 12 13  1  0
 12 14  1  0
 14 15  2  0
 15 16  1  0
 16 17  2  0
 17 18  1  0
  6 19  1  0
 19 20  1  0
 20 21  1  0
 21  6  1  0
 18 14  1  0
  1 22  1  0
  1 23  1  0
  1 24  1  0
  2 25  1  0
  2 26  1  0
  7 27  1  0
  7 28  1  0
 10 29  1  0
 11 30  1  0
 11 31  1  0
 12 32  1  0
 13 33  1  0
 13 34  1  0
 13 35  1  0
 16 36  1  0
 17 37  1  0
 18 38  1  0
 19 39  1  0
 19 40  1  0
 20 41  1  0
 20 42  1  0
 21 43  1  0
 21 44  1  0
M  END
>  <Energy>  (275) 
561.97092691932824

>  <compound_id>  (275) 
60661

>  <target_id>  (275) 
1

>  <reference_id>  (275) 
123

>  <inspiration_ids>  (275) 
[123, 116]

>  <energy_score>  (275) 
526.3946184283991

>  <distance_score>  (275) 
4.444942190181756

>  <path>  (275) 
/opt/xchem-fragalysis-2/maxwin/BulkDock/SCRATCH/511021/C60661-P123/C60661-P123.minimised.mol

>  <scratch_subdir>  (275) 
/opt/xchem-fragalysis-2/maxwin/BulkDock/SCRATCH/511021/C60661-P123

>  <fragmenstein_runtime>  (275) 
18.482819318771362

>  <fragmenstein_outcome>  (275) 
too moved

>  <fragmenstein_mode>  (275) 
expansion

>  <fragmenstein_error>  (275) 


$$$$
C60661-P116
     RDKit          3D

 44 45  0  0  0  0  0  0  0  0999 V2000
  -11.6844  -24.3999   26.1977 C   0  0  0  0  0  0  0  0  0  0  0  0
  -12.4315  -23.0695   26.0750 C   0  0  0  0  0  0  0  0  0  0  0  0
  -11.6274  -21.9804   26.5676 O   0  0  0  0  0  0  0  0  0  0  0  0
  -11.8890  -21.4675   27.7637 C   0  0  0  0  0  0  0  0  0  0  0  0
  -13.0289  -21.3710   28.1640 O   0  0  0  0  0  0  0  0  0  0  0  0
  -10.6310  -21.0385   28.8749 C   0  0  0  0  0  0  0  0  0  0  0  0
   -8.9983  -19.7516   28.4254 C   0  0  0  0  0  0  0  0  0  0  0  0
   -7.6373  -18.7797   29.7633 C   0  0  0  0  0  0  0  0  0  0  0  0
   -7.6171  -18.7525   30.9557 O   0  0  0  0  0  0  0  0  0  0  0  0
   -6.4291  -17.8159   28.8297 N   0  0  0  0  0  0  0  0  0  0  0  0
   -5.1467  -16.6269   29.3476 C   0  0  0  0  0  0  0  0  0  0  0  0
   -3.5697  -16.6857   28.0937 C   0  0  0  0  0  0  0  0  0  0  0  0
   -2.4678  -17.5878   27.3082 C   0  0  0  0  0  0  0  0  0  0  0  0
   -2.3854  -15.3173   28.1370 C   0  0  0  0  0  0  0  0  0  0  0  0
   -2.1927  -14.4310   27.1529 N   0  0  0  0  0  0  0  0  0  0  0  0
   -1.3490  -13.4358   27.6120 C   0  0  0  0  0  0  0  0  0  0  0  0
   -0.8298  -13.8078   28.8152 C   0  0  0  0  0  0  0  0  0  0  0  0
   -1.4136  -15.0195   29.0914 N   0  0  0  0  0  0  0  0  0  0  0  0
  -10.8237  -22.6965   29.0176 C   0  0  0  0  0  0  0  0  0  0  0  0
  -11.6745  -22.4176   30.2922 C   0  0  0  0  0  0  0  0  0  0  0  0
  -11.4430  -21.0359   30.1979 C   0  0  0  0  0  0  0  0  0  0  0  0
  -10.7723  -24.3912   25.5974 H   0  0  0  0  0  0  0  0  0  0  0  0
  -11.3358  -24.6390   27.1953 H   0  0  0  0  0  0  0  0  0  0  0  0
  -12.3256  -25.2314   25.8896 H   0  0  0  0  0  0  0  0  0  0  0  0
  -13.3690  -23.1485   26.5950 H   0  0  0  0  0  0  0  0  0  0  0  0
  -12.6634  -22.8510   25.0287 H   0  0  0  0  0  0  0  0  0  0  0  0
   -8.1998  -20.5709   27.9534 H   0  0  0  0  0  0  0  0  0  0  0  0
   -9.3779  -20.5844   27.6884 H   0  0  0  0  0  0  0  0  0  0  0  0
   -6.5287  -18.0069   27.9425 H   0  0  0  0  0  0  0  0  0  0  0  0
   -5.8610  -15.8077   29.4642 H   0  0  0  0  0  0  0  0  0  0  0  0
   -4.7387  -16.7351   30.2796 H   0  0  0  0  0  0  0  0  0  0  0  0
   -4.1945  -17.0591   27.3583 H   0  0  0  0  0  0  0  0  0  0  0  0
   -2.6491  -18.6435   27.1382 H   0  0  0  0  0  0  0  0  0  0  0  0
   -1.4767  -17.4821   27.7146 H   0  0  0  0  0  0  0  0  0  0  0  0
   -2.3357  -17.1754   26.2970 H   0  0  0  0  0  0  0  0  0  0  0  0
   -1.1326  -12.5609   27.0115 H   0  0  0  0  0  0  0  0  0  0  0  0
   -0.1014  -13.3546   29.4714 H   0  0  0  0  0  0  0  0  0  0  0  0
   -1.1879  -15.5284   29.9279 H   0  0  0  0  0  0  0  0  0  0  0  0
  -11.6060  -23.2817   28.5013 H   0  0  0  0  0  0  0  0  0  0  0  0
  -10.1242  -23.3552   28.4923 H   0  0  0  0  0  0  0  0  0  0  0  0
  -12.7472  -22.5563   30.1474 H   0  0  0  0  0  0  0  0  0  0  0  0
  -11.4919  -22.8186   31.2938 H   0  0  0  0  0  0  0  0  0  0  0  0
  -12.4898  -20.7266   30.0973 H   0  0  0  0  0  0  0  0  0  0  0  0
  -10.9767  -20.7478   31.1060 H   0  0  0  0  0  0  0  0  0  0  0  0
  1  2  1  0
  2  3  1  0
  3  4  1  0
  4  5  2  0
  4  6  1  0
  6  7  1  0
  7  8  1  0
  8  9  2  0
  8 10  1  0
 10 11  1  0
 11 12  1  0
 12 13  1  0
 12 14  1  0
 14 15  2  0
 15 16  1  0
 16 17  2  0
 17 18  1  0
  6 19  1  0
 19 20  1  0
 20 21  1  0
 21  6  1  0
 18 14  1  0
  1 22  1  0
  1 23  1  0
  1 24  1  0
  2 25  1  0
  2 26  1  0
  7 27  1  0
  7 28  1  0
 10 29  1  0
 11 30  1  0
 11 31  1  0
 12 32  1  0
 13 33  1  0
 13 34  1  0
 13 35  1  0
 16 36  1  0
 17 37  1  0
 18 38  1  0
 19 39  1  0
 19 40  1  0
 20 41  1  0
 20 42  1  0
 21 43  1  0
 21 44  1  0
M  END
>  <Energy>  (276) 
685.60369968210932

>  <compound_id>  (276) 
60661

>  <target_id>  (276) 
1

>  <reference_id>  (276) 
116

>  <inspiration_ids>  (276) 
[123, 116]

>  <energy_score>  (276) 
650.0273911911863

>  <distance_score>  (276) 
3.0599145030913646

>  <path>  (276) 
/opt/xchem-fragalysis-2/maxwin/BulkDock/SCRATCH/511021/C60661-P116/C60661-P116.minimised.mol

>  <scratch_subdir>  (276) 
/opt/xchem-fragalysis-2/maxwin/BulkDock/SCRATCH/511021/C60661-P116

>  <fragmenstein_runtime>  (276) 
21.450883865356445

>  <fragmenstein_outcome>  (276) 
too moved

>  <fragmenstein_mode>  (276) 
expansion

>  <fragmenstein_error>  (276) 


$$$$
C60662-P123
     RDKit          3D

 35 36  0  0  0  0  0  0  0  0999 V2000
  -11.9747  -25.4330   26.3202 C   0  0  0  0  0  0  0  0  0  0  0  0
  -13.2176  -25.2340   27.1718 C   0  0  0  0  0  0  0  0  0  0  0  0
  -12.9569  -24.2830   28.2158 O   0  0  0  0  0  0  0  0  0  0  0  0
  -12.2269  -24.7878   29.2561 C   0  0  0  0  0  0  0  0  0  0  0  0
  -12.0962  -26.0014   29.4427 O   0  0  0  0  0  0  0  0  0  0  0  0
  -11.5079  -23.7342   30.0862 C   0  0  0  0  0  0  0  0  0  0  0  0
  -11.8232  -23.5243   31.5730 C   0  0  0  0  0  0  0  0  0  0  0  0
  -11.5296  -22.0260   31.4014 C   0  0  0  0  0  0  0  0  0  0  0  0
  -11.7136  -22.1757   29.8802 C   0  0  0  0  0  0  0  0  0  0  0  0
  -10.8217  -21.4875   28.7857 C   0  0  0  0  0  0  0  0  0  0  0  0
  -10.8894  -22.0191   27.6978 O   0  0  0  0  0  0  0  0  0  0  0  0
  -10.0393  -20.2265   29.2432 N   0  0  0  0  0  0  0  0  0  0  0  0
   -8.7804  -18.9633   28.2040 C   0  0  0  0  0  0  0  0  0  0  0  0
   -8.7180  -17.2196   27.3273 C   0  0  0  0  0  0  0  0  0  0  0  0
   -8.0907  -16.1335   27.7407 N   0  0  0  0  0  0  0  0  0  0  0  0
   -8.5398  -14.9780   26.9777 C   0  0  0  0  0  0  0  0  0  0  0  0
   -9.3827  -15.3820   26.0094 C   0  0  0  0  0  0  0  0  0  0  0  0
   -9.5575  -16.7063   26.2918 N   0  0  0  0  0  0  0  0  0  0  0  0
  -11.1448  -25.8315   26.9117 H   0  0  0  0  0  0  0  0  0  0  0  0
  -11.6388  -24.4787   25.9013 H   0  0  0  0  0  0  0  0  0  0  0  0
  -12.1768  -26.1288   25.5016 H   0  0  0  0  0  0  0  0  0  0  0  0
  -14.0196  -24.8378   26.5450 H   0  0  0  0  0  0  0  0  0  0  0  0
  -13.5815  -26.1840   27.5790 H   0  0  0  0  0  0  0  0  0  0  0  0
  -10.4650  -24.0594   30.0085 H   0  0  0  0  0  0  0  0  0  0  0  0
  -12.8535  -23.7206   31.8623 H   0  0  0  0  0  0  0  0  0  0  0  0
  -11.1632  -24.0468   32.2719 H   0  0  0  0  0  0  0  0  0  0  0  0
  -12.2544  -21.4003   31.9240 H   0  0  0  0  0  0  0  0  0  0  0  0
  -10.5430  -21.7128   31.7265 H   0  0  0  0  0  0  0  0  0  0  0  0
  -12.7623  -21.9721   29.6387 H   0  0  0  0  0  0  0  0  0  0  0  0
  -10.1471  -20.1121   30.2643 H   0  0  0  0  0  0  0  0  0  0  0  0
   -9.5822  -18.4972   27.7504 H   0  0  0  0  0  0  0  0  0  0  0  0
   -8.1671  -18.4348   28.9079 H   0  0  0  0  0  0  0  0  0  0  0  0
   -8.1670  -13.9879   27.2091 H   0  0  0  0  0  0  0  0  0  0  0  0
   -9.8926  -14.8796   25.2014 H   0  0  0  0  0  0  0  0  0  0  0  0
  -10.0443  -17.3068   25.6585 H   0  0  0  0  0  0  0  0  0  0  0  0
  1  2  1  0
  2  3  1  0
  3  4  1  0
  4  5  2  0
  4  6  1  0
  6  7  1  0
  7  8  1  0
  8  9  1  0
  9 10  1  0
 10 11  2  0
 10 12  1  0
 12 13  1  0
 13 14  1  0
 14 15  2  0
 15 16  1  0
 16 17  2  0
 17 18  1  0
  9  6  1  0
 18 14  1  0
  1 19  1  0
  1 20  1  0
  1 21  1  0
  2 22  1  0
  2 23  1  0
  6 24  1  0
  7 25  1  0
  7 26  1  0
  8 27  1  0
  8 28  1  0
  9 29  1  0
 12 30  1  0
 13 31  1  0
 13 32  1  0
 16 33  1  0
 17 34  1  0
 18 35  1  0
M  END
>  <Energy>  (277) 
230.61804084504035

>  <compound_id>  (277) 
60662

>  <target_id>  (277) 
1

>  <reference_id>  (277) 
123

>  <inspiration_ids>  (277) 
[123, 116]

>  <energy_score>  (277) 
232.9556492307908

>  <distance_score>  (277) 
5.922680887384408

>  <path>  (277) 
/opt/xchem-fragalysis-2/maxwin/BulkDock/SCRATCH/511021/C60662-P123/C60662-P123.minimised.mol

>  <scratch_subdir>  (277) 
/opt/xchem-fragalysis-2/maxwin/BulkDock/SCRATCH/511021/C60662-P123

>  <fragmenstein_runtime>  (277) 
17.29952383041382

>  <fragmenstein_outcome>  (277) 
too moved

>  <fragmenstein_mode>  (277) 
expansion

>  <fragmenstein_error>  (277) 


$$$$
C60662-P116
     RDKit          3D

 35 36  0  0  0  0  0  0  0  0999 V2000
  -11.7100  -23.3093   27.4175 C   0  0  0  0  0  0  0  0  0  0  0  0
  -11.6371  -22.1382   28.3819 C   0  0  0  0  0  0  0  0  0  0  0  0
  -11.0280  -22.4479   29.6427 O   0  0  0  0  0  0  0  0  0  0  0  0
  -11.1600  -21.6285   30.7943 C   0  0  0  0  0  0  0  0  0  0  0  0
  -12.0909  -20.8657   30.7000 O   0  0  0  0  0  0  0  0  0  0  0  0
   -9.8961  -21.9860   32.3638 C   0  0  0  0  0  0  0  0  0  0  0  0
   -9.2621  -23.6584   32.8796 C   0  0  0  0  0  0  0  0  0  0  0  0
   -7.9873  -22.7758   34.0946 C   0  0  0  0  0  0  0  0  0  0  0  0
   -8.2804  -21.3596   33.5296 C   0  0  0  0  0  0  0  0  0  0  0  0
   -8.3722  -20.0425   34.5639 C   0  0  0  0  0  0  0  0  0  0  0  0
   -9.2730  -19.9326   35.3481 O   0  0  0  0  0  0  0  0  0  0  0  0
   -7.2199  -19.1917   34.3252 N   0  0  0  0  0  0  0  0  0  0  0  0
   -6.8556  -17.9141   34.8857 C   0  0  0  0  0  0  0  0  0  0  0  0
   -5.4124  -17.5638   34.6461 C   0  0  0  0  0  0  0  0  0  0  0  0
   -4.4413  -18.3301   34.1879 N   0  0  0  0  0  0  0  0  0  0  0  0
   -3.3093  -17.5523   34.1542 C   0  0  0  0  0  0  0  0  0  0  0  0
   -3.5756  -16.2959   34.6294 C   0  0  0  0  0  0  0  0  0  0  0  0
   -4.9080  -16.3157   34.9437 N   0  0  0  0  0  0  0  0  0  0  0  0
  -12.5951  -23.9101   27.5574 H   0  0  0  0  0  0  0  0  0  0  0  0
  -10.8322  -23.9567   27.4985 H   0  0  0  0  0  0  0  0  0  0  0  0
  -11.8106  -22.9502   26.3918 H   0  0  0  0  0  0  0  0  0  0  0  0
  -10.9041  -21.5156   27.9101 H   0  0  0  0  0  0  0  0  0  0  0  0
  -12.5743  -21.6003   28.4888 H   0  0  0  0  0  0  0  0  0  0  0  0
  -10.7857  -22.6752   32.5519 H   0  0  0  0  0  0  0  0  0  0  0  0
   -8.9719  -24.5099   32.2555 H   0  0  0  0  0  0  0  0  0  0  0  0
  -10.0876  -24.3236   33.0850 H   0  0  0  0  0  0  0  0  0  0  0  0
   -6.9506  -23.1342   34.0161 H   0  0  0  0  0  0  0  0  0  0  0  0
   -8.1864  -22.6130   35.1450 H   0  0  0  0  0  0  0  0  0  0  0  0
   -7.3075  -21.1798   33.0000 H   0  0  0  0  0  0  0  0  0  0  0  0
   -6.7073  -19.5461   33.5288 H   0  0  0  0  0  0  0  0  0  0  0  0
   -7.0771  -17.9363   35.9574 H   0  0  0  0  0  0  0  0  0  0  0  0
   -7.5053  -17.1654   34.4210 H   0  0  0  0  0  0  0  0  0  0  0  0
   -2.3703  -17.9465   33.7900 H   0  0  0  0  0  0  0  0  0  0  0  0
   -2.9661  -15.4117   34.7510 H   0  0  0  0  0  0  0  0  0  0  0  0
   -5.4415  -15.5386   35.3064 H   0  0  0  0  0  0  0  0  0  0  0  0
  1  2  1  0
  2  3  1  0
  3  4  1  0
  4  5  2  0
  4  6  1  0
  6  7  1  0
  7  8  1  0
  8  9  1  0
  9 10  1  0
 10 11  2  0
 10 12  1  0
 12 13  1  0
 13 14  1  0
 14 15  2  0
 15 16  1  0
 16 17  2  0
 17 18  1  0
  9  6  1  0
 18 14  1  0
  1 19  1  0
  1 20  1  0
  1 21  1  0
  2 22  1  0
  2 23  1  0
  6 24  1  0
  7 25  1  0
  7 26  1  0
  8 27  1  0
  8 28  1  0
  9 29  1  0
 12 30  1  0
 13 31  1  0
 13 32  1  0
 16 33  1  0
 17 34  1  0
 18 35  1  0
M  END
>  <Energy>  (278) 
260.33274251876617

>  <compound_id>  (278) 
60662

>  <target_id>  (278) 
1

>  <reference_id>  (278) 
116

>  <inspiration_ids>  (278) 
[123, 116]

>  <energy_score>  (278) 
262.67035090452305

>  <distance_score>  (278) 
5.709386336132568

>  <path>  (278) 
/opt/xchem-fragalysis-2/maxwin/BulkDock/SCRATCH/511021/C60662-P116/C60662-P116.minimised.mol

>  <scratch_subdir>  (278) 
/opt/xchem-fragalysis-2/maxwin/BulkDock/SCRATCH/511021/C60662-P116

>  <fragmenstein_runtime>  (278) 
13.076684713363647

>  <fragmenstein_outcome>  (278) 
too moved

>  <fragmenstein_mode>  (278) 
expansion

>  <fragmenstein_error>  (278) 


$$$$
C60663-P123
     RDKit          3D

 38 39  0  0  0  0  0  0  0  0999 V2000
  -13.6864  -15.6393   34.1950 C   0  0  0  0  0  0  0  0  0  0  0  0
  -12.7070  -14.4980   33.9630 C   0  0  0  0  0  0  0  0  0  0  0  0
  -11.4570  -14.8843   34.5393 O   0  0  0  0  0  0  0  0  0  0  0  0
  -10.3584  -14.3606   33.9442 C   0  0  0  0  0  0  0  0  0  0  0  0
  -10.3087  -13.3397   33.2794 O   0  0  0  0  0  0  0  0  0  0  0  0
   -9.2183  -15.2930   34.1409 C   0  0  0  0  0  0  0  0  0  0  0  0
   -9.2581  -16.2761   35.1276 C   0  0  0  0  0  0  0  0  0  0  0  0
   -8.3379  -17.3000   35.0831 C   0  0  0  0  0  0  0  0  0  0  0  0
   -7.4322  -17.3700   34.0276 C   0  0  0  0  0  0  0  0  0  0  0  0
   -7.2051  -16.3212   33.1154 C   0  0  0  0  0  0  0  0  0  0  0  0
   -5.7957  -16.6375   32.0412 C   0  0  0  0  0  0  0  0  0  0  0  0
   -4.9996  -17.2679   32.6280 O   0  0  0  0  0  0  0  0  0  0  0  0
   -5.3406  -16.0619   30.3576 N   0  0  0  0  0  0  0  0  0  0  0  0
   -5.7121  -16.9706   29.4075 C   0  0  0  0  0  0  0  0  0  0  0  0
   -3.6809  -16.1884   29.3832 C   0  0  0  0  0  0  0  0  0  0  0  0
   -2.6948  -16.0632   27.7474 C   0  0  0  0  0  0  0  0  0  0  0  0
   -2.0321  -14.9852   27.4205 N   0  0  0  0  0  0  0  0  0  0  0  0
   -2.2316  -14.7510   26.0034 C   0  0  0  0  0  0  0  0  0  0  0  0
   -2.7086  -15.9173   25.3869 C   0  0  0  0  0  0  0  0  0  0  0  0
   -2.5864  -16.9327   26.5929 N   0  0  0  0  0  0  0  0  0  0  0  0
   -8.1674  -15.2754   33.1989 C   0  0  0  0  0  0  0  0  0  0  0  0
  -13.8451  -15.7812   35.2698 H   0  0  0  0  0  0  0  0  0  0  0  0
  -14.6519  -15.4163   33.7339 H   0  0  0  0  0  0  0  0  0  0  0  0
  -13.3057  -16.5867   33.8177 H   0  0  0  0  0  0  0  0  0  0  0  0
  -13.0593  -13.5866   34.4561 H   0  0  0  0  0  0  0  0  0  0  0  0
  -12.6092  -14.3176   32.8863 H   0  0  0  0  0  0  0  0  0  0  0  0
  -10.0386  -16.2889   35.8830 H   0  0  0  0  0  0  0  0  0  0  0  0
   -8.3606  -18.0987   35.8127 H   0  0  0  0  0  0  0  0  0  0  0  0
   -6.9444  -18.3202   33.8825 H   0  0  0  0  0  0  0  0  0  0  0  0
   -6.1057  -17.7608   29.9775 H   0  0  0  0  0  0  0  0  0  0  0  0
   -6.5028  -17.1915   28.6457 H   0  0  0  0  0  0  0  0  0  0  0  0
   -6.1635  -16.0198   29.0702 H   0  0  0  0  0  0  0  0  0  0  0  0
   -4.2044  -16.3070   28.4922 H   0  0  0  0  0  0  0  0  0  0  0  0
   -3.1513  -15.3294   29.8038 H   0  0  0  0  0  0  0  0  0  0  0  0
   -1.9612  -13.8354   25.5101 H   0  0  0  0  0  0  0  0  0  0  0  0
   -2.9781  -16.0155   24.3859 H   0  0  0  0  0  0  0  0  0  0  0  0
   -2.8810  -17.8950   26.5420 H   0  0  0  0  0  0  0  0  0  0  0  0
   -8.1833  -14.4678   32.4648 H   0  0  0  0  0  0  0  0  0  0  0  0
  1  2  1  0
  2  3  1  0
  3  4  1  0
  4  5  2  0
  4  6  1  0
  6  7  2  0
  7  8  1  0
  8  9  2  0
  9 10  1  0
 10 11  1  0
 11 12  2  0
 11 13  1  0
 13 14  1  0
 13 15  1  0
 15 16  1  0
 16 17  2  0
 17 18  1  0
 18 19  2  0
 19 20  1  0
 10 21  2  0
 21  6  1  0
 20 16  1  0
  1 22  1  0
  1 23  1  0
  1 24  1  0
  2 25  1  0
  2 26  1  0
  7 27  1  0
  8 28  1  0
  9 29  1  0
 14 30  1  0
 14 31  1  0
 14 32  1  0
 15 33  1  0
 15 34  1  0
 18 35  1  0
 19 36  1  0
 20 37  1  0
 21 38  1  0
M  END
>  <Energy>  (279) 
488.41134243813656

>  <compound_id>  (279) 
60663

>  <target_id>  (279) 
1

>  <reference_id>  (279) 
123

>  <inspiration_ids>  (279) 
[123, 116]

>  <energy_score>  (279) 
430.4642984224653

>  <distance_score>  (279) 
8.382601573032739

>  <path>  (279) 
/opt/xchem-fragalysis-2/maxwin/BulkDock/SCRATCH/511021/C60663-P123/C60663-P123.minimised.mol

>  <scratch_subdir>  (279) 
/opt/xchem-fragalysis-2/maxwin/BulkDock/SCRATCH/511021/C60663-P123

>  <fragmenstein_runtime>  (279) 
18.32682991027832

>  <fragmenstein_outcome>  (279) 
too moved

>  <fragmenstein_mode>  (279) 
expansion

>  <fragmenstein_error>  (279) 


$$$$
C60663-P116
     RDKit          3D

 38 39  0  0  0  0  0  0  0  0999 V2000
  -12.9609  -27.4745   26.4427 C   0  0  0  0  0  0  0  0  0  0  0  0
  -11.4826  -27.1360   26.4727 C   0  0  0  0  0  0  0  0  0  0  0  0
  -11.0677  -25.8028   26.8036 O   0  0  0  0  0  0  0  0  0  0  0  0
  -11.9036  -24.7886   26.5411 C   0  0  0  0  0  0  0  0  0  0  0  0
  -12.9370  -24.8767   25.8912 O   0  0  0  0  0  0  0  0  0  0  0  0
  -11.4989  -23.5446   27.2190 C   0  0  0  0  0  0  0  0  0  0  0  0
  -12.4721  -22.6211   27.3607 C   0  0  0  0  0  0  0  0  0  0  0  0
  -12.3834  -21.7791   28.4668 C   0  0  0  0  0  0  0  0  0  0  0  0
  -11.2024  -21.4972   29.0169 C   0  0  0  0  0  0  0  0  0  0  0  0
  -10.2360  -21.7072   28.1141 C   0  0  0  0  0  0  0  0  0  0  0  0
   -8.5377  -20.7282   27.7989 C   0  0  0  0  0  0  0  0  0  0  0  0
   -7.7384  -21.4708   27.3116 O   0  0  0  0  0  0  0  0  0  0  0  0
   -8.3444  -18.8556   28.4030 N   0  0  0  0  0  0  0  0  0  0  0  0
   -8.5987  -17.6231   27.5618 C   0  0  0  0  0  0  0  0  0  0  0  0
   -6.5374  -17.8005   28.4605 C   0  0  0  0  0  0  0  0  0  0  0  0
   -4.4926  -17.4541   27.9075 C   0  0  0  0  0  0  0  0  0  0  0  0
   -3.8491  -16.3425   28.2735 N   0  0  0  0  0  0  0  0  0  0  0  0
   -2.4356  -16.1363   27.8114 C   0  0  0  0  0  0  0  0  0  0  0  0
   -2.1555  -17.2122   27.0694 C   0  0  0  0  0  0  0  0  0  0  0  0
   -3.1552  -18.0693   27.4542 N   0  0  0  0  0  0  0  0  0  0  0  0
  -10.3154  -23.1307   27.7579 C   0  0  0  0  0  0  0  0  0  0  0  0
  -13.4433  -27.1431   25.5205 H   0  0  0  0  0  0  0  0  0  0  0  0
  -13.0714  -28.5551   26.4813 H   0  0  0  0  0  0  0  0  0  0  0  0
  -13.5347  -27.0616   27.2651 H   0  0  0  0  0  0  0  0  0  0  0  0
  -11.0442  -27.3842   25.5072 H   0  0  0  0  0  0  0  0  0  0  0  0
  -11.0136  -27.7846   27.2208 H   0  0  0  0  0  0  0  0  0  0  0  0
  -13.3638  -22.7466   26.7737 H   0  0  0  0  0  0  0  0  0  0  0  0
  -13.1960  -21.2941   28.9519 H   0  0  0  0  0  0  0  0  0  0  0  0
  -11.1496  -20.8927   29.8833 H   0  0  0  0  0  0  0  0  0  0  0  0
   -8.6422  -16.9792   28.3732 H   0  0  0  0  0  0  0  0  0  0  0  0
   -9.5753  -17.6090   27.0922 H   0  0  0  0  0  0  0  0  0  0  0  0
   -8.1123  -16.7149   27.2081 H   0  0  0  0  0  0  0  0  0  0  0  0
   -6.3324  -17.9306   29.5229 H   0  0  0  0  0  0  0  0  0  0  0  0
   -5.9379  -18.5407   27.8256 H   0  0  0  0  0  0  0  0  0  0  0  0
   -1.9209  -15.2109   28.0338 H   0  0  0  0  0  0  0  0  0  0  0  0
   -1.3477  -17.5109   26.4304 H   0  0  0  0  0  0  0  0  0  0  0  0
   -3.2236  -18.9691   27.0258 H   0  0  0  0  0  0  0  0  0  0  0  0
   -9.4209  -23.7084   27.5393 H   0  0  0  0  0  0  0  0  0  0  0  0
  1  2  1  0
  2  3  1  0
  3  4  1  0
  4  5  2  0
  4  6  1  0
  6  7  2  0
  7  8  1  0
  8  9  2  0
  9 10  1  0
 10 11  1  0
 11 12  2  0
 11 13  1  0
 13 14  1  0
 13 15  1  0
 15 16  1  0
 16 17  2  0
 17 18  1  0
 18 19  2  0
 19 20  1  0
 10 21  2  0
 21  6  1  0
 20 16  1  0
  1 22  1  0
  1 23  1  0
  1 24  1  0
  2 25  1  0
  2 26  1  0
  7 27  1  0
  8 28  1  0
  9 29  1  0
 14 30  1  0
 14 31  1  0
 14 32  1  0
 15 33  1  0
 15 34  1  0
 18 35  1  0
 19 36  1  0
 20 37  1  0
 21 38  1  0
M  END
>  <Energy>  (280) 
729.27816684491972

>  <compound_id>  (280) 
60663

>  <target_id>  (280) 
1

>  <reference_id>  (280) 
116

>  <inspiration_ids>  (280) 
[123, 116]

>  <energy_score>  (280) 
671.3311228292466

>  <distance_score>  (280) 
4.799093553913614

>  <path>  (280) 
/opt/xchem-fragalysis-2/maxwin/BulkDock/SCRATCH/511021/C60663-P116/C60663-P116.minimised.mol

>  <scratch_subdir>  (280) 
/opt/xchem-fragalysis-2/maxwin/BulkDock/SCRATCH/511021/C60663-P116

>  <fragmenstein_runtime>  (280) 
27.960681200027466

>  <fragmenstein_outcome>  (280) 
too moved

>  <fragmenstein_mode>  (280) 
expansion

>  <fragmenstein_error>  (280) 


$$$$
C60664-P123
     RDKit          3D

 42 43  0  0  0  0  0  0  0  0999 V2000
  -13.7779  -26.7407   25.5151 C   0  0  0  0  0  0  0  0  0  0  0  0
  -13.9181  -25.2835   25.8664 C   0  0  0  0  0  0  0  0  0  0  0  0
  -12.6356  -24.6610   26.0204 O   0  0  0  0  0  0  0  0  0  0  0  0
  -12.0731  -24.8065   27.2557 C   0  0  0  0  0  0  0  0  0  0  0  0
  -12.4886  -25.6089   28.0438 O   0  0  0  0  0  0  0  0  0  0  0  0
  -11.0732  -23.8251   27.3893 N   0  0  0  0  0  0  0  0  0  0  0  0
  -10.1588  -23.5450   28.4816 C   0  0  0  0  0  0  0  0  0  0  0  0
   -9.0414  -22.3528   28.2558 C   0  0  0  0  0  0  0  0  0  0  0  0
   -9.5681  -20.7278   27.6242 N   0  0  0  0  0  0  0  0  0  0  0  0
   -8.9137  -18.8933   28.0160 C   0  0  0  0  0  0  0  0  0  0  0  0
   -8.1589  -18.7927   28.8075 O   0  0  0  0  0  0  0  0  0  0  0  0
   -9.6049  -17.6627   26.8256 N   0  0  0  0  0  0  0  0  0  0  0  0
   -9.0785  -16.4226   26.7413 C   0  0  0  0  0  0  0  0  0  0  0  0
   -9.4735  -15.7211   26.5268 C   0  0  0  0  0  0  0  0  0  0  0  0
   -8.5967  -14.6343   25.4729 C   0  0  0  0  0  0  0  0  0  0  0  0
   -8.5553  -14.5730   24.0934 C   0  0  0  0  0  0  0  0  0  0  0  0
   -7.9115  -13.3980   23.8098 N   0  0  0  0  0  0  0  0  0  0  0  0
   -7.6103  -12.8049   24.9979 C   0  0  0  0  0  0  0  0  0  0  0  0
   -8.0099  -13.5249   26.0168 N   0  0  0  0  0  0  0  0  0  0  0  0
  -11.0030  -21.3101   28.5420 C   0  0  0  0  0  0  0  0  0  0  0  0
  -11.6746  -22.5362   27.8508 C   0  0  0  0  0  0  0  0  0  0  0  0
  -14.7581  -27.1974   25.3510 H   0  0  0  0  0  0  0  0  0  0  0  0
  -13.2622  -27.2986   26.3015 H   0  0  0  0  0  0  0  0  0  0  0  0
  -13.1891  -26.8407   24.6042 H   0  0  0  0  0  0  0  0  0  0  0  0
  -14.5230  -25.1664   26.7719 H   0  0  0  0  0  0  0  0  0  0  0  0
  -14.4379  -24.7544   25.0610 H   0  0  0  0  0  0  0  0  0  0  0  0
  -10.6970  -23.6020   29.4523 H   0  0  0  0  0  0  0  0  0  0  0  0
   -9.5796  -24.4755   28.5766 H   0  0  0  0  0  0  0  0  0  0  0  0
   -7.9481  -22.3647   28.3244 H   0  0  0  0  0  0  0  0  0  0  0  0
   -8.6647  -22.9483   27.4003 H   0  0  0  0  0  0  0  0  0  0  0  0
   -8.1000  -17.0211   26.9952 H   0  0  0  0  0  0  0  0  0  0  0  0
   -8.3020  -16.0663   27.7203 H   0  0  0  0  0  0  0  0  0  0  0  0
   -8.4921  -16.7430   25.6041 H   0  0  0  0  0  0  0  0  0  0  0  0
  -10.2902  -15.7250   25.6013 H   0  0  0  0  0  0  0  0  0  0  0  0
  -10.2967  -15.0511   27.0729 H   0  0  0  0  0  0  0  0  0  0  0  0
   -8.9552  -15.2154   23.3203 H   0  0  0  0  0  0  0  0  0  0  0  0
   -7.7292  -13.0090   22.8939 H   0  0  0  0  0  0  0  0  0  0  0  0
   -7.0901  -11.8646   25.0613 H   0  0  0  0  0  0  0  0  0  0  0  0
  -11.8719  -20.6567   28.7403 H   0  0  0  0  0  0  0  0  0  0  0  0
  -10.6738  -21.4444   29.5792 H   0  0  0  0  0  0  0  0  0  0  0  0
  -12.0375  -22.1460   26.9017 H   0  0  0  0  0  0  0  0  0  0  0  0
  -12.5762  -22.7800   28.4371 H   0  0  0  0  0  0  0  0  0  0  0  0
  1  2  1  0
  2  3  1  0
  3  4  1  0
  4  5  2  0
  4  6  1  0
  6  7  1  0
  7  8  1  0
  8  9  1  0
  9 10  1  0
 10 11  2  0
 10 12  1  0
 12 13  1  0
 12 14  1  0
 14 15  1  0
 15 16  2  0
 16 17  1  0
 17 18  1  0
 18 19  2  0
  9 20  1  0
 20 21  1  0
 21  6  1  0
 19 15  1  0
  1 22  1  0
  1 23  1  0
  1 24  1  0
  2 25  1  0
  2 26  1  0
  7 27  1  0
  7 28  1  0
  8 29  1  0
  8 30  1  0
 13 31  1  0
 13 32  1  0
 13 33  1  0
 14 34  1  0
 14 35  1  0
 16 36  1  0
 17 37  1  0
 18 38  1  0
 20 39  1  0
 20 40  1  0
 21 41  1  0
 21 42  1  0
M  END
>  <Energy>  (281) 
1093.4177534434518

>  <compound_id>  (281) 
60664

>  <target_id>  (281) 
1

>  <reference_id>  (281) 
123

>  <inspiration_ids>  (281) 
[123, 116]

>  <energy_score>  (281) 
1115.8985898925291

>  <distance_score>  (281) 
6.51065065374669

>  <path>  (281) 
/opt/xchem-fragalysis-2/maxwin/BulkDock/SCRATCH/511021/C60664-P123/C60664-P123.minimised.mol

>  <scratch_subdir>  (281) 
/opt/xchem-fragalysis-2/maxwin/BulkDock/SCRATCH/511021/C60664-P123

>  <fragmenstein_runtime>  (281) 
22.09775424003601

>  <fragmenstein_outcome>  (281) 
too moved

>  <fragmenstein_mode>  (281) 
expansion

>  <fragmenstein_error>  (281) 


$$$$
C60664-P116
     RDKit          3D

 42 43  0  0  0  0  0  0  0  0999 V2000
   -9.3327  -29.0724   27.7944 C   0  0  0  0  0  0  0  0  0  0  0  0
   -9.9965  -28.2195   28.7986 C   0  0  0  0  0  0  0  0  0  0  0  0
   -8.9914  -28.0165   29.9259 O   0  0  0  0  0  0  0  0  0  0  0  0
   -9.7123  -27.5180   30.9907 C   0  0  0  0  0  0  0  0  0  0  0  0
  -10.8359  -27.9809   31.1721 O   0  0  0  0  0  0  0  0  0  0  0  0
   -8.9282  -26.2827   31.7330 N   0  0  0  0  0  0  0  0  0  0  0  0
   -9.4739  -25.3142   32.8354 C   0  0  0  0  0  0  0  0  0  0  0  0
   -9.0658  -23.8601   33.0960 C   0  0  0  0  0  0  0  0  0  0  0  0
   -7.8008  -23.4847   33.8663 N   0  0  0  0  0  0  0  0  0  0  0  0
   -7.1177  -22.1492   34.0343 C   0  0  0  0  0  0  0  0  0  0  0  0
   -7.3682  -21.1628   33.5516 O   0  0  0  0  0  0  0  0  0  0  0  0
   -6.0240  -22.5639   34.9045 N   0  0  0  0  0  0  0  0  0  0  0  0
   -5.0564  -21.9660   35.5111 C   0  0  0  0  0  0  0  0  0  0  0  0
   -4.5025  -21.4310   35.3073 C   0  0  0  0  0  0  0  0  0  0  0  0
   -4.5878  -19.7055   35.1175 C   0  0  0  0  0  0  0  0  0  0  0  0
   -5.6208  -18.8914   34.7047 C   0  0  0  0  0  0  0  0  0  0  0  0
   -5.0216  -17.7210   34.3221 N   0  0  0  0  0  0  0  0  0  0  0  0
   -3.6797  -17.8440   34.5498 C   0  0  0  0  0  0  0  0  0  0  0  0
   -3.3890  -19.0061   35.0915 N   0  0  0  0  0  0  0  0  0  0  0  0
   -7.3529  -24.3543   32.8630 C   0  0  0  0  0  0  0  0  0  0  0  0
   -8.8613  -25.0287   31.4612 C   0  0  0  0  0  0  0  0  0  0  0  0
   -8.2734  -28.8554   27.6462 H   0  0  0  0  0  0  0  0  0  0  0  0
   -9.9436  -28.8811   26.9229 H   0  0  0  0  0  0  0  0  0  0  0  0
   -9.3376  -30.1375   28.0222 H   0  0  0  0  0  0  0  0  0  0  0  0
  -10.9601  -28.6101   29.1037 H   0  0  0  0  0  0  0  0  0  0  0  0
  -10.4025  -27.3033   28.3348 H   0  0  0  0  0  0  0  0  0  0  0  0
  -10.1868  -25.9172   33.4096 H   0  0  0  0  0  0  0  0  0  0  0  0
  -10.5032  -24.9070   32.5862 H   0  0  0  0  0  0  0  0  0  0  0  0
   -9.4740  -23.0842   32.4889 H   0  0  0  0  0  0  0  0  0  0  0  0
   -9.9524  -23.6823   33.5125 H   0  0  0  0  0  0  0  0  0  0  0  0
   -5.9684  -21.3960   36.2217 H   0  0  0  0  0  0  0  0  0  0  0  0
   -4.5363  -23.1528   35.4894 H   0  0  0  0  0  0  0  0  0  0  0  0
   -5.1633  -22.5236   36.6205 H   0  0  0  0  0  0  0  0  0  0  0  0
   -3.3326  -21.7405   35.5158 H   0  0  0  0  0  0  0  0  0  0  0  0
   -4.3242  -21.2835   34.0810 H   0  0  0  0  0  0  0  0  0  0  0  0
   -6.6734  -19.0715   34.5311 H   0  0  0  0  0  0  0  0  0  0  0  0
   -5.4859  -16.9358   33.8893 H   0  0  0  0  0  0  0  0  0  0  0  0
   -2.9752  -17.0596   34.3060 H   0  0  0  0  0  0  0  0  0  0  0  0
   -6.3160  -24.7107   32.9554 H   0  0  0  0  0  0  0  0  0  0  0  0
   -6.4825  -23.7184   32.4743 H   0  0  0  0  0  0  0  0  0  0  0  0
   -9.6837  -24.3515   31.1982 H   0  0  0  0  0  0  0  0  0  0  0  0
   -8.3371  -25.1987   30.5080 H   0  0  0  0  0  0  0  0  0  0  0  0
  1  2  1  0
  2  3  1  0
  3  4  1  0
  4  5  2  0
  4  6  1  0
  6  7  1  0
  7  8  1  0
  8  9  1  0
  9 10  1  0
 10 11  2  0
 10 12  1  0
 12 13  1  0
 12 14  1  0
 14 15  1  0
 15 16  2  0
 16 17  1  0
 17 18  1  0
 18 19  2  0
  9 20  1  0
 20 21  1  0
 21  6  1  0
 19 15  1  0
  1 22  1  0
  1 23  1  0
  1 24  1  0
  2 25  1  0
  2 26  1  0
  7 27  1  0
  7 28  1  0
  8 29  1  0
  8 30  1  0
 13 31  1  0
 13 32  1  0
 13 33  1  0
 14 34  1  0
 14 35  1  0
 16 36  1  0
 17 37  1  0
 18 38  1  0
 20 39  1  0
 20 40  1  0
 21 41  1  0
 21 42  1  0
M  END
>  <Energy>  (282) 
1247.4731039942849

>  <compound_id>  (282) 
60664

>  <target_id>  (282) 
1

>  <reference_id>  (282) 
116

>  <inspiration_ids>  (282) 
[123, 116]

>  <energy_score>  (282) 
1269.9539404433558

>  <distance_score>  (282) 
6.90449391187823

>  <path>  (282) 
/opt/xchem-fragalysis-2/maxwin/BulkDock/SCRATCH/511021/C60664-P116/C60664-P116.minimised.mol

>  <scratch_subdir>  (282) 
/opt/xchem-fragalysis-2/maxwin/BulkDock/SCRATCH/511021/C60664-P116

>  <fragmenstein_runtime>  (282) 
19.508280277252197

>  <fragmenstein_outcome>  (282) 
too moved

>  <fragmenstein_mode>  (282) 
expansion

>  <fragmenstein_error>  (282) 


$$$$
C60665-P123
     RDKit          3D

 41 42  0  0  0  0  0  0  0  0999 V2000
  -12.9757  -26.4884   27.0428 C   0  0  0  0  0  0  0  0  0  0  0  0
  -12.3146  -26.7843   28.3740 C   0  0  0  0  0  0  0  0  0  0  0  0
  -12.2569  -25.5525   29.0866 O   0  0  0  0  0  0  0  0  0  0  0  0
  -11.5856  -25.5789   30.2777 C   0  0  0  0  0  0  0  0  0  0  0  0
  -11.2612  -26.6088   30.8518 O   0  0  0  0  0  0  0  0  0  0  0  0
  -11.2271  -24.1465   30.7239 C   0  0  0  0  0  0  0  0  0  0  0  0
  -11.0331  -23.3047   29.4592 C   0  0  0  0  0  0  0  0  0  0  0  0
  -10.3921  -21.8803   29.3082 N   0  0  0  0  0  0  0  0  0  0  0  0
  -10.2184  -21.0249   28.1684 C   0  0  0  0  0  0  0  0  0  0  0  0
  -10.6611  -21.2874   27.1229 O   0  0  0  0  0  0  0  0  0  0  0  0
   -9.3412  -19.2555   28.3849 N   0  0  0  0  0  0  0  0  0  0  0  0
   -8.1204  -19.1013   28.1819 C   0  0  0  0  0  0  0  0  0  0  0  0
   -9.1964  -17.7281   27.1284 C   0  0  0  0  0  0  0  0  0  0  0  0
   -9.2077  -16.0796   26.4735 C   0  0  0  0  0  0  0  0  0  0  0  0
   -8.6793  -14.9682   26.9811 N   0  0  0  0  0  0  0  0  0  0  0  0
   -8.7355  -13.9815   26.0394 C   0  0  0  0  0  0  0  0  0  0  0  0
   -9.2668  -14.4835   24.8868 C   0  0  0  0  0  0  0  0  0  0  0  0
   -9.5768  -15.7882   25.1687 N   0  0  0  0  0  0  0  0  0  0  0  0
  -11.6076  -21.5234   30.0683 C   0  0  0  0  0  0  0  0  0  0  0  0
  -11.9586  -22.1363   31.4759 C   0  0  0  0  0  0  0  0  0  0  0  0
  -12.2516  -23.5142   31.4434 O   0  0  0  0  0  0  0  0  0  0  0  0
  -12.3893  -25.7591   26.4733 H   0  0  0  0  0  0  0  0  0  0  0  0
  -13.0801  -27.3977   26.4491 H   0  0  0  0  0  0  0  0  0  0  0  0
  -13.9684  -26.0504   27.1915 H   0  0  0  0  0  0  0  0  0  0  0  0
  -12.8848  -27.5312   28.9336 H   0  0  0  0  0  0  0  0  0  0  0  0
  -11.2988  -27.1441   28.2008 H   0  0  0  0  0  0  0  0  0  0  0  0
  -10.3152  -24.2075   31.3276 H   0  0  0  0  0  0  0  0  0  0  0  0
  -11.9486  -23.2972   28.8325 H   0  0  0  0  0  0  0  0  0  0  0  0
  -10.3595  -23.8891   28.8046 H   0  0  0  0  0  0  0  0  0  0  0  0
   -7.9266  -18.8274   29.1820 H   0  0  0  0  0  0  0  0  0  0  0  0
   -7.7459  -18.0884   28.1892 H   0  0  0  0  0  0  0  0  0  0  0  0
   -7.5952  -20.0723   27.8550 H   0  0  0  0  0  0  0  0  0  0  0  0
   -8.5462  -17.0239   27.7038 H   0  0  0  0  0  0  0  0  0  0  0  0
  -10.2595  -17.4821   27.0986 H   0  0  0  0  0  0  0  0  0  0  0  0
   -8.3611  -12.9856   26.2385 H   0  0  0  0  0  0  0  0  0  0  0  0
   -9.4346  -14.0529   23.9107 H   0  0  0  0  0  0  0  0  0  0  0  0
   -9.8227  -16.4849   24.4783 H   0  0  0  0  0  0  0  0  0  0  0  0
  -12.4658  -21.3026   29.4290 H   0  0  0  0  0  0  0  0  0  0  0  0
  -11.1897  -20.6423   30.4713 H   0  0  0  0  0  0  0  0  0  0  0  0
  -11.1147  -21.9832   32.1507 H   0  0  0  0  0  0  0  0  0  0  0  0
  -12.8176  -21.6321   31.9223 H   0  0  0  0  0  0  0  0  0  0  0  0
  1  2  1  0
  2  3  1  0
  3  4  1  0
  4  5  2  0
  4  6  1  0
  6  7  1  0
  7  8  1  0
  8  9  1  0
  9 10  2  0
  9 11  1  0
 11 12  1  0
 11 13  1  0
 13 14  1  0
 14 15  2  0
 15 16  1  0
 16 17  2  0
 17 18  1  0
  8 19  1  0
 19 20  1  0
 20 21  1  0
 21  6  1  0
 18 14  1  0
  1 22  1  0
  1 23  1  0
  1 24  1  0
  2 25  1  0
  2 26  1  0
  6 27  1  0
  7 28  1  0
  7 29  1  0
 12 30  1  0
 12 31  1  0
 12 32  1  0
 13 33  1  0
 13 34  1  0
 16 35  1  0
 17 36  1  0
 18 37  1  0
 19 38  1  0
 19 39  1  0
 20 40  1  0
 20 41  1  0
M  END
>  <Energy>  (283) 
563.19691724476854

>  <compound_id>  (283) 
60665

>  <target_id>  (283) 
1

>  <reference_id>  (283) 
123

>  <inspiration_ids>  (283) 
[123, 116]

>  <energy_score>  (283) 
505.0853756008421

>  <distance_score>  (283) 
6.238408675213641

>  <path>  (283) 
/opt/xchem-fragalysis-2/maxwin/BulkDock/SCRATCH/511021/C60665-P123/C60665-P123.minimised.mol

>  <scratch_subdir>  (283) 
/opt/xchem-fragalysis-2/maxwin/BulkDock/SCRATCH/511021/C60665-P123

>  <fragmenstein_runtime>  (283) 
23.582496404647827

>  <fragmenstein_outcome>  (283) 
too moved

>  <fragmenstein_mode>  (283) 
expansion

>  <fragmenstein_error>  (283) 


$$$$
C60665-P116
     RDKit          3D

 41 42  0  0  0  0  0  0  0  0999 V2000
  -11.3093  -24.0489   26.6183 C   0  0  0  0  0  0  0  0  0  0  0  0
  -12.0428  -22.8223   27.1334 C   0  0  0  0  0  0  0  0  0  0  0  0
  -11.9381  -22.9007   28.5430 O   0  0  0  0  0  0  0  0  0  0  0  0
  -12.7678  -22.1323   29.3475 C   0  0  0  0  0  0  0  0  0  0  0  0
  -12.8672  -20.9179   29.2814 O   0  0  0  0  0  0  0  0  0  0  0  0
  -13.5492  -23.3507   30.5776 C   0  0  0  0  0  0  0  0  0  0  0  0
  -11.8879  -22.3837   31.2561 C   0  0  0  0  0  0  0  0  0  0  0  0
  -10.3754  -22.4576   32.3723 N   0  0  0  0  0  0  0  0  0  0  0  0
   -9.5721  -20.8905   33.4063 C   0  0  0  0  0  0  0  0  0  0  0  0
   -9.9532  -19.7601   33.5437 O   0  0  0  0  0  0  0  0  0  0  0  0
   -8.1479  -21.4735   34.2963 N   0  0  0  0  0  0  0  0  0  0  0  0
   -6.8545  -21.2553   33.4913 C   0  0  0  0  0  0  0  0  0  0  0  0
   -7.2913  -20.8005   35.3771 C   0  0  0  0  0  0  0  0  0  0  0  0
   -6.8964  -19.3153   35.0682 C   0  0  0  0  0  0  0  0  0  0  0  0
   -5.6671  -18.8187   35.0252 N   0  0  0  0  0  0  0  0  0  0  0  0
   -5.7691  -17.6045   34.3986 C   0  0  0  0  0  0  0  0  0  0  0  0
   -7.0800  -17.3145   34.1226 C   0  0  0  0  0  0  0  0  0  0  0  0
   -7.7871  -18.4068   34.5443 N   0  0  0  0  0  0  0  0  0  0  0  0
  -11.6793  -23.9611   32.8983 C   0  0  0  0  0  0  0  0  0  0  0  0
  -13.7916  -24.6257   33.7956 C   0  0  0  0  0  0  0  0  0  0  0  0
  -14.7847  -24.1417   32.0236 O   0  0  0  0  0  0  0  0  0  0  0  0
  -11.0821  -23.9622   25.5619 H   0  0  0  0  0  0  0  0  0  0  0  0
  -10.3784  -24.2178   27.1679 H   0  0  0  0  0  0  0  0  0  0  0  0
  -11.9202  -24.9473   26.7343 H   0  0  0  0  0  0  0  0  0  0  0  0
  -11.6192  -21.8780   26.8181 H   0  0  0  0  0  0  0  0  0  0  0  0
  -13.0690  -22.8713   26.7818 H   0  0  0  0  0  0  0  0  0  0  0  0
  -14.4903  -22.6214   30.4759 H   0  0  0  0  0  0  0  0  0  0  0  0
  -11.2509  -22.1431   30.4094 H   0  0  0  0  0  0  0  0  0  0  0  0
  -12.3179  -21.3751   31.3614 H   0  0  0  0  0  0  0  0  0  0  0  0
   -6.5011  -22.2869   33.3565 H   0  0  0  0  0  0  0  0  0  0  0  0
   -6.9281  -20.6763   32.5909 H   0  0  0  0  0  0  0  0  0  0  0  0
   -5.8792  -20.9383   33.9103 H   0  0  0  0  0  0  0  0  0  0  0  0
   -7.9814  -20.7236   36.2290 H   0  0  0  0  0  0  0  0  0  0  0  0
   -6.4593  -21.4249   35.7384 H   0  0  0  0  0  0  0  0  0  0  0  0
   -4.8925  -17.0052   34.1927 H   0  0  0  0  0  0  0  0  0  0  0  0
   -7.5812  -16.4810   33.6593 H   0  0  0  0  0  0  0  0  0  0  0  0
   -8.7655  -18.6047   34.3493 H   0  0  0  0  0  0  0  0  0  0  0  0
  -11.4923  -24.2097   31.8524 H   0  0  0  0  0  0  0  0  0  0  0  0
  -10.9038  -24.7994   32.9765 H   0  0  0  0  0  0  0  0  0  0  0  0
  -14.7062  -23.7685   33.9582 H   0  0  0  0  0  0  0  0  0  0  0  0
  -14.0178  -25.7446   33.7550 H   0  0  0  0  0  0  0  0  0  0  0  0
  1  2  1  0
  2  3  1  0
  3  4  1  0
  4  5  2  0
  4  6  1  0
  6  7  1  0
  7  8  1  0
  8  9  1  0
  9 10  2  0
  9 11  1  0
 11 12  1  0
 11 13  1  0
 13 14  1  0
 14 15  2  0
 15 16  1  0
 16 17  2  0
 17 18  1  0
  8 19  1  0
 19 20  1  0
 20 21  1  0
 21  6  1  0
 18 14  1  0
  1 22  1  0
  1 23  1  0
  1 24  1  0
  2 25  1  0
  2 26  1  0
  6 27  1  0
  7 28  1  0
  7 29  1  0
 12 30  1  0
 12 31  1  0
 12 32  1  0
 13 33  1  0
 13 34  1  0
 16 35  1  0
 17 36  1  0
 18 37  1  0
 19 38  1  0
 19 39  1  0
 20 40  1  0
 20 41  1  0
M  END
>  <Energy>  (284) 
1277.5422122193154

>  <compound_id>  (284) 
60665

>  <target_id>  (284) 
1

>  <reference_id>  (284) 
116

>  <inspiration_ids>  (284) 
[123, 116]

>  <energy_score>  (284) 
1219.4306705753947

>  <distance_score>  (284) 
6.4176247143783876

>  <path>  (284) 
/opt/xchem-fragalysis-2/maxwin/BulkDock/SCRATCH/511021/C60665-P116/C60665-P116.minimised.mol

>  <scratch_subdir>  (284) 
/opt/xchem-fragalysis-2/maxwin/BulkDock/SCRATCH/511021/C60665-P116

>  <fragmenstein_runtime>  (284) 
17.957073211669922

>  <fragmenstein_outcome>  (284) 
too moved

>  <fragmenstein_mode>  (284) 
expansion

>  <fragmenstein_error>  (284) 


$$$$
C60666-P123
     RDKit          3D

 35 36  0  0  0  0  0  0  0  0999 V2000
  -10.2863  -25.0033   31.4512 C   0  0  0  0  0  0  0  0  0  0  0  0
   -9.8764  -24.4672   32.8174 C   0  0  0  0  0  0  0  0  0  0  0  0
   -9.3523  -23.1214   32.6644 O   0  0  0  0  0  0  0  0  0  0  0  0
   -8.2538  -22.5824   33.4538 C   0  0  0  0  0  0  0  0  0  0  0  0
   -8.0364  -23.3016   34.4038 O   0  0  0  0  0  0  0  0  0  0  0  0
   -7.3152  -21.1107   33.1391 C   0  0  0  0  0  0  0  0  0  0  0  0
   -6.2927  -21.2624   32.2086 C   0  0  0  0  0  0  0  0  0  0  0  0
   -4.9862  -20.7366   31.5898 C   0  0  0  0  0  0  0  0  0  0  0  0
   -3.6728  -21.8809   30.5295 C   0  0  0  0  0  0  0  0  0  0  0  0
   -3.9457  -23.0717   30.4739 O   0  0  0  0  0  0  0  0  0  0  0  0
   -2.0443  -21.1593   29.8439 N   0  0  0  0  0  0  0  0  0  0  0  0
   -1.0073  -21.7573   29.3407 C   0  0  0  0  0  0  0  0  0  0  0  0
   -1.5506  -20.4613   28.0823 C   0  0  0  0  0  0  0  0  0  0  0  0
   -1.0946  -18.9723   26.9524 C   0  0  0  0  0  0  0  0  0  0  0  0
   -0.6074  -17.8198   27.2634 N   0  0  0  0  0  0  0  0  0  0  0  0
   -1.7417  -17.0274   27.2016 C   0  0  0  0  0  0  0  0  0  0  0  0
   -2.3554  -17.3967   26.1112 C   0  0  0  0  0  0  0  0  0  0  0  0
   -2.0446  -18.6624   26.0394 N   0  0  0  0  0  0  0  0  0  0  0  0
   -5.5056  -19.6928   32.4191 N   0  0  0  0  0  0  0  0  0  0  0  0
   -6.6204  -20.0175   33.5697 N   0  0  0  0  0  0  0  0  0  0  0  0
   -9.4156  -25.1011   30.7969 H   0  0  0  0  0  0  0  0  0  0  0  0
  -10.9901  -24.3219   30.9629 H   0  0  0  0  0  0  0  0  0  0  0  0
  -10.7572  -25.9859   31.5489 H   0  0  0  0  0  0  0  0  0  0  0  0
  -10.7707  -24.4157   33.4448 H   0  0  0  0  0  0  0  0  0  0  0  0
   -9.1418  -25.1286   33.2725 H   0  0  0  0  0  0  0  0  0  0  0  0
   -6.7240  -22.1500   31.8720 H   0  0  0  0  0  0  0  0  0  0  0  0
   -1.0540  -22.4026   28.4464 H   0  0  0  0  0  0  0  0  0  0  0  0
   -0.1994  -21.1265   29.5791 H   0  0  0  0  0  0  0  0  0  0  0  0
   -0.9701  -22.5327   29.9691 H   0  0  0  0  0  0  0  0  0  0  0  0
   -0.6580  -20.9197   27.7234 H   0  0  0  0  0  0  0  0  0  0  0  0
   -2.1832  -20.2633   27.2728 H   0  0  0  0  0  0  0  0  0  0  0  0
   -1.8164  -15.9769   27.5172 H   0  0  0  0  0  0  0  0  0  0  0  0
   -2.8475  -16.7434   25.4234 H   0  0  0  0  0  0  0  0  0  0  0  0
   -2.6946  -19.3133   25.6755 H   0  0  0  0  0  0  0  0  0  0  0  0
   -5.2566  -18.7310   32.4827 H   0  0  0  0  0  0  0  0  0  0  0  0
  1  2  1  0
  2  3  1  0
  3  4  1  0
  4  5  2  0
  4  6  1  0
  6  7  1  0
  7  8  2  0
  8  9  1  0
  9 10  2  0
  9 11  1  0
 11 12  1  0
 11 13  1  0
 13 14  1  0
 14 15  2  0
 15 16  1  0
 16 17  2  0
 17 18  1  0
  8 19  1  0
 19 20  1  0
 20  6  2  0
 18 14  1  0
  1 21  1  0
  1 22  1  0
  1 23  1  0
  2 24  1  0
  2 25  1  0
  7 26  1  0
 12 27  1  0
 12 28  1  0
 12 29  1  0
 13 30  1  0
 13 31  1  0
 16 32  1  0
 17 33  1  0
 18 34  1  0
 19 35  1  0
M  END
>  <Energy>  (285) 
841.2273113912521

>  <compound_id>  (285) 
60666

>  <target_id>  (285) 
1

>  <reference_id>  (285) 
123

>  <inspiration_ids>  (285) 
[123, 116]

>  <energy_score>  (285) 
801.480132885463

>  <distance_score>  (285) 
5.959741667253412

>  <path>  (285) 
/opt/xchem-fragalysis-2/maxwin/BulkDock/SCRATCH/511021/C60666-P123/C60666-P123.minimised.mol

>  <scratch_subdir>  (285) 
/opt/xchem-fragalysis-2/maxwin/BulkDock/SCRATCH/511021/C60666-P123

>  <fragmenstein_runtime>  (285) 
14.824822664260864

>  <fragmenstein_outcome>  (285) 
too moved

>  <fragmenstein_mode>  (285) 
expansion

>  <fragmenstein_error>  (285) 


$$$$
C60666-P116
     RDKit          3D

 35 36  0  0  0  0  0  0  0  0999 V2000
  -11.6125  -22.8778   28.0404 C   0  0  0  0  0  0  0  0  0  0  0  0
  -11.8701  -21.9613   29.2313 C   0  0  0  0  0  0  0  0  0  0  0  0
  -11.5744  -22.4710   30.5659 O   0  0  0  0  0  0  0  0  0  0  0  0
  -10.8588  -21.5461   31.2728 C   0  0  0  0  0  0  0  0  0  0  0  0
  -11.1818  -20.4536   30.9722 O   0  0  0  0  0  0  0  0  0  0  0  0
   -9.4313  -21.9861   32.4595 C   0  0  0  0  0  0  0  0  0  0  0  0
   -8.0346  -21.1957   33.5668 C   0  0  0  0  0  0  0  0  0  0  0  0
   -6.7027  -21.7340   33.1108 C   0  0  0  0  0  0  0  0  0  0  0  0
   -4.9667  -21.5830   33.0010 C   0  0  0  0  0  0  0  0  0  0  0  0
   -4.4900  -22.1447   33.9109 O   0  0  0  0  0  0  0  0  0  0  0  0
   -3.8409  -20.5772   31.8544 N   0  0  0  0  0  0  0  0  0  0  0  0
   -2.5206  -20.2894   31.9691 C   0  0  0  0  0  0  0  0  0  0  0  0
   -2.8171  -21.1195   30.1091 C   0  0  0  0  0  0  0  0  0  0  0  0
   -1.8249  -20.2984   28.3969 C   0  0  0  0  0  0  0  0  0  0  0  0
   -1.9110  -19.8176   26.9035 N   0  0  0  0  0  0  0  0  0  0  0  0
   -1.6935  -18.3179   26.3629 C   0  0  0  0  0  0  0  0  0  0  0  0
   -2.1461  -17.6916   27.4100 C   0  0  0  0  0  0  0  0  0  0  0  0
   -2.7205  -19.0016   27.3487 N   0  0  0  0  0  0  0  0  0  0  0  0
   -7.5272  -22.9809   33.9248 N   0  0  0  0  0  0  0  0  0  0  0  0
   -9.0310  -23.4895   33.0464 N   0  0  0  0  0  0  0  0  0  0  0  0
  -10.6444  -23.3763   28.1138 H   0  0  0  0  0  0  0  0  0  0  0  0
  -11.6464  -22.2834   27.1244 H   0  0  0  0  0  0  0  0  0  0  0  0
  -12.3589  -23.6449   27.8918 H   0  0  0  0  0  0  0  0  0  0  0  0
  -11.1570  -21.1859   29.0240 H   0  0  0  0  0  0  0  0  0  0  0  0
  -12.8511  -21.4958   29.2343 H   0  0  0  0  0  0  0  0  0  0  0  0
   -8.1475  -20.1578   33.8984 H   0  0  0  0  0  0  0  0  0  0  0  0
   -2.1304  -19.2391   31.9870 H   0  0  0  0  0  0  0  0  0  0  0  0
   -1.9346  -21.1152   31.9102 H   0  0  0  0  0  0  0  0  0  0  0  0
   -2.6257  -20.0131   33.0480 H   0  0  0  0  0  0  0  0  0  0  0  0
   -3.3263  -20.6103   29.4904 H   0  0  0  0  0  0  0  0  0  0  0  0
   -1.7493  -20.1932   29.7240 H   0  0  0  0  0  0  0  0  0  0  0  0
   -1.1173  -18.0647   25.5328 H   0  0  0  0  0  0  0  0  0  0  0  0
   -2.5045  -16.7026   27.6128 H   0  0  0  0  0  0  0  0  0  0  0  0
   -3.6912  -18.9757   27.5475 H   0  0  0  0  0  0  0  0  0  0  0  0
   -7.0075  -23.6606   34.4549 H   0  0  0  0  0  0  0  0  0  0  0  0
  1  2  1  0
  2  3  1  0
  3  4  1  0
  4  5  2  0
  4  6  1  0
  6  7  1  0
  7  8  2  0
  8  9  1  0
  9 10  2  0
  9 11  1  0
 11 12  1  0
 11 13  1  0
 13 14  1  0
 14 15  2  0
 15 16  1  0
 16 17  2  0
 17 18  1  0
  8 19  1  0
 19 20  1  0
 20  6  2  0
 18 14  1  0
  1 21  1  0
  1 22  1  0
  1 23  1  0
  2 24  1  0
  2 25  1  0
  7 26  1  0
 12 27  1  0
 12 28  1  0
 12 29  1  0
 13 30  1  0
 13 31  1  0
 16 32  1  0
 17 33  1  0
 18 34  1  0
 19 35  1  0
M  END
>  <Energy>  (286) 
1300.878691874891

>  <compound_id>  (286) 
60666

>  <target_id>  (286) 
1

>  <reference_id>  (286) 
116

>  <inspiration_ids>  (286) 
[123, 116]

>  <energy_score>  (286) 
1261.1315133690944

>  <distance_score>  (286) 
4.771490707215677

>  <path>  (286) 
/opt/xchem-fragalysis-2/maxwin/BulkDock/SCRATCH/511021/C60666-P116/C60666-P116.minimised.mol

>  <scratch_subdir>  (286) 
/opt/xchem-fragalysis-2/maxwin/BulkDock/SCRATCH/511021/C60666-P116

>  <fragmenstein_runtime>  (286) 
12.899692296981812

>  <fragmenstein_outcome>  (286) 
too moved

>  <fragmenstein_mode>  (286) 
expansion

>  <fragmenstein_error>  (286) 


$$$$
C60667-P123
     RDKit          3D

 44 46  0  0  0  0  0  0  0  0999 V2000
  -11.6602  -26.6925   26.9125 C   0  0  0  0  0  0  0  0  0  0  0  0
  -12.5221  -25.5746   27.4467 C   0  0  0  0  0  0  0  0  0  0  0  0
  -12.1216  -25.3002   28.7922 O   0  0  0  0  0  0  0  0  0  0  0  0
  -12.7931  -24.2307   29.3212 C   0  0  0  0  0  0  0  0  0  0  0  0
  -13.7584  -23.7221   28.7692 O   0  0  0  0  0  0  0  0  0  0  0  0
  -12.1383  -23.7729   30.5151 C   0  0  0  0  0  0  0  0  0  0  0  0
  -11.4490  -24.4892   31.4633 C   0  0  0  0  0  0  0  0  0  0  0  0
  -10.6194  -23.6153   32.2054 C   0  0  0  0  0  0  0  0  0  0  0  0
  -10.7874  -22.2890   31.9601 C   0  0  0  0  0  0  0  0  0  0  0  0
  -12.0652  -22.1002   30.8416 S   0  0  0  0  0  0  0  0  0  0  0  0
   -9.6523  -21.1444   32.1997 C   0  0  0  0  0  0  0  0  0  0  0  0
   -8.3098  -20.8833   33.4685 N   0  0  0  0  0  0  0  0  0  0  0  0
   -6.8490  -20.0919   33.2274 C   0  0  0  0  0  0  0  0  0  0  0  0
   -5.8423  -20.5003   32.9128 O   0  0  0  0  0  0  0  0  0  0  0  0
   -6.9970  -18.2864   33.3588 N   0  0  0  0  0  0  0  0  0  0  0  0
   -6.6990  -17.8519   34.7023 C   0  0  0  0  0  0  0  0  0  0  0  0
   -5.7048  -16.8509   32.8865 C   0  0  0  0  0  0  0  0  0  0  0  0
   -3.6922  -16.4541   32.6210 C   0  0  0  0  0  0  0  0  0  0  0  0
   -2.9427  -15.3939   33.3862 N   0  0  0  0  0  0  0  0  0  0  0  0
   -1.7794  -14.9059   32.9190 C   0  0  0  0  0  0  0  0  0  0  0  0
   -1.4788  -15.5702   31.7651 C   0  0  0  0  0  0  0  0  0  0  0  0
   -2.6269  -16.2851   31.5335 N   0  0  0  0  0  0  0  0  0  0  0  0
   -8.5792  -22.7154   33.4046 C   0  0  0  0  0  0  0  0  0  0  0  0
   -9.4308  -23.9716   32.9072 C   0  0  0  0  0  0  0  0  0  0  0  0
  -10.6013  -26.4941   27.0987 H   0  0  0  0  0  0  0  0  0  0  0  0
  -11.8179  -26.8277   25.8396 H   0  0  0  0  0  0  0  0  0  0  0  0
  -11.9096  -27.6277   27.4225 H   0  0  0  0  0  0  0  0  0  0  0  0
  -12.3746  -24.6808   26.8286 H   0  0  0  0  0  0  0  0  0  0  0  0
  -13.5759  -25.8743   27.4170 H   0  0  0  0  0  0  0  0  0  0  0  0
  -11.3791  -25.5713   31.4686 H   0  0  0  0  0  0  0  0  0  0  0  0
  -10.2936  -20.3737   32.6953 H   0  0  0  0  0  0  0  0  0  0  0  0
   -9.8247  -20.6401   31.2862 H   0  0  0  0  0  0  0  0  0  0  0  0
   -7.7009  -18.1715   35.0738 H   0  0  0  0  0  0  0  0  0  0  0  0
   -6.9925  -16.8162   34.9343 H   0  0  0  0  0  0  0  0  0  0  0  0
   -6.2973  -18.5107   35.4759 H   0  0  0  0  0  0  0  0  0  0  0  0
   -5.2410  -17.7522   32.5826 H   0  0  0  0  0  0  0  0  0  0  0  0
   -5.9028  -16.1036   33.6247 H   0  0  0  0  0  0  0  0  0  0  0  0
   -1.3276  -14.0054   33.2970 H   0  0  0  0  0  0  0  0  0  0  0  0
   -0.7048  -15.3922   31.0247 H   0  0  0  0  0  0  0  0  0  0  0  0
   -2.8912  -16.1407   30.5737 H   0  0  0  0  0  0  0  0  0  0  0  0
   -7.7546  -22.9286   32.7688 H   0  0  0  0  0  0  0  0  0  0  0  0
   -8.1014  -23.0882   34.2880 H   0  0  0  0  0  0  0  0  0  0  0  0
   -8.8021  -24.5617   32.2230 H   0  0  0  0  0  0  0  0  0  0  0  0
   -9.6441  -24.7123   33.6816 H   0  0  0  0  0  0  0  0  0  0  0  0
  1  2  1  0
  2  3  1  0
  3  4  1  0
  4  5  2  0
  4  6  1  0
  6  7  2  0
  7  8  1  0
  8  9  2  0
  9 10  1  0
  9 11  1  0
 11 12  1  0
 12 13  1  0
 13 14  2  0
 13 15  1  0
 15 16  1  0
 15 17  1  0
 17 18  1  0
 18 19  2  0
 19 20  1  0
 20 21  2  0
 21 22  1  0
 12 23  1  0
 23 24  1  0
 10  6  1  0
 22 18  1  0
 24  8  1  0
  1 25  1  0
  1 26  1  0
  1 27  1  0
  2 28  1  0
  2 29  1  0
  7 30  1  0
 11 31  1  0
 11 32  1  0
 16 33  1  0
 16 34  1  0
 16 35  1  0
 17 36  1  0
 17 37  1  0
 20 38  1  0
 21 39  1  0
 22 40  1  0
 23 41  1  0
 23 42  1  0
 24 43  1  0
 24 44  1  0
M  END
>  <Energy>  (287) 
659.31392883659396

>  <compound_id>  (287) 
60667

>  <target_id>  (287) 
1

>  <reference_id>  (287) 
123

>  <inspiration_ids>  (287) 
[123, 116]

>  <energy_score>  (287) 
632.1038232783991

>  <distance_score>  (287) 
3.570510691844635

>  <path>  (287) 
/opt/xchem-fragalysis-2/maxwin/BulkDock/SCRATCH/511021/C60667-P123/C60667-P123.minimised.mol

>  <scratch_subdir>  (287) 
/opt/xchem-fragalysis-2/maxwin/BulkDock/SCRATCH/511021/C60667-P123

>  <fragmenstein_runtime>  (287) 
24.062931776046753

>  <fragmenstein_outcome>  (287) 
too moved

>  <fragmenstein_mode>  (287) 
expansion

>  <fragmenstein_error>  (287) 


$$$$
C60667-P116
     RDKit          3D

 44 46  0  0  0  0  0  0  0  0999 V2000
   -9.9837  -27.8865   28.9852 C   0  0  0  0  0  0  0  0  0  0  0  0
   -8.7411  -27.1032   30.1515 C   0  0  0  0  0  0  0  0  0  0  0  0
   -8.2201  -25.6573   30.9975 O   0  0  0  0  0  0  0  0  0  0  0  0
   -6.5759  -25.1437   31.1961 C   0  0  0  0  0  0  0  0  0  0  0  0
   -5.8813  -25.6795   30.3440 O   0  0  0  0  0  0  0  0  0  0  0  0
   -6.0472  -23.8372   32.5996 C   0  0  0  0  0  0  0  0  0  0  0  0
   -4.8988  -22.8526   33.1347 C   0  0  0  0  0  0  0  0  0  0  0  0
   -4.9976  -21.2281   33.9043 C   0  0  0  0  0  0  0  0  0  0  0  0
   -6.1857  -20.7345   33.4811 C   0  0  0  0  0  0  0  0  0  0  0  0
   -6.9783  -22.5007   34.0961 S   0  0  0  0  0  0  0  0  0  0  0  0
   -6.2241  -18.8596   33.4919 C   0  0  0  0  0  0  0  0  0  0  0  0
   -4.8752  -17.5053   33.4076 N   0  0  0  0  0  0  0  0  0  0  0  0
   -3.8029  -17.5305   31.9367 C   0  0  0  0  0  0  0  0  0  0  0  0
   -2.8325  -18.2172   32.1444 O   0  0  0  0  0  0  0  0  0  0  0  0
   -4.3988  -16.6963   30.2103 N   0  0  0  0  0  0  0  0  0  0  0  0
   -3.7591  -15.2569   30.0351 C   0  0  0  0  0  0  0  0  0  0  0  0
   -3.6513  -16.8687   28.2903 C   0  0  0  0  0  0  0  0  0  0  0  0
   -2.1886  -15.7486   27.8557 C   0  0  0  0  0  0  0  0  0  0  0  0
   -2.2661  -14.6249   27.1188 N   0  0  0  0  0  0  0  0  0  0  0  0
   -1.4238  -13.6417   27.6366 C   0  0  0  0  0  0  0  0  0  0  0  0
   -0.6423  -14.1975   28.6033 C   0  0  0  0  0  0  0  0  0  0  0  0
   -0.9978  -15.5292   28.5965 N   0  0  0  0  0  0  0  0  0  0  0  0
   -4.7123  -18.0827   34.8024 C   0  0  0  0  0  0  0  0  0  0  0  0
   -4.0765  -19.8698   34.6399 C   0  0  0  0  0  0  0  0  0  0  0  0
  -10.7802  -28.4214   29.4976 H   0  0  0  0  0  0  0  0  0  0  0  0
   -9.4358  -28.6156   28.3651 H   0  0  0  0  0  0  0  0  0  0  0  0
  -10.5315  -27.1903   28.3175 H   0  0  0  0  0  0  0  0  0  0  0  0
   -7.8393  -27.6244   29.8473 H   0  0  0  0  0  0  0  0  0  0  0  0
   -9.3973  -27.4047   30.9305 H   0  0  0  0  0  0  0  0  0  0  0  0
   -3.9125  -23.1243   32.8630 H   0  0  0  0  0  0  0  0  0  0  0  0
   -7.0170  -18.5234   32.8186 H   0  0  0  0  0  0  0  0  0  0  0  0
   -5.4814  -19.3172   32.9406 H   0  0  0  0  0  0  0  0  0  0  0  0
   -3.0744  -14.9256   29.3014 H   0  0  0  0  0  0  0  0  0  0  0  0
   -2.8579  -15.5537   30.6513 H   0  0  0  0  0  0  0  0  0  0  0  0
   -4.4199  -14.2684   30.1193 H   0  0  0  0  0  0  0  0  0  0  0  0
   -3.0476  -17.7380   28.0371 H   0  0  0  0  0  0  0  0  0  0  0  0
   -4.3641  -17.1715   27.6125 H   0  0  0  0  0  0  0  0  0  0  0  0
   -1.4121  -12.6395   27.2255 H   0  0  0  0  0  0  0  0  0  0  0  0
    0.1900  -13.8264   29.1831 H   0  0  0  0  0  0  0  0  0  0  0  0
   -0.3676  -16.2328   28.9504 H   0  0  0  0  0  0  0  0  0  0  0  0
   -5.5933  -18.0324   35.4517 H   0  0  0  0  0  0  0  0  0  0  0  0
   -3.8480  -17.5906   35.2495 H   0  0  0  0  0  0  0  0  0  0  0  0
   -3.1507  -19.7671   34.0748 H   0  0  0  0  0  0  0  0  0  0  0  0
   -3.8862  -20.1862   35.6708 H   0  0  0  0  0  0  0  0  0  0  0  0
  1  2  1  0
  2  3  1  0
  3  4  1  0
  4  5  2  0
  4  6  1  0
  6  7  2  0
  7  8  1  0
  8  9  2  0
  9 10  1  0
  9 11  1  0
 11 12  1  0
 12 13  1  0
 13 14  2  0
 13 15  1  0
 15 16  1  0
 15 17  1  0
 17 18  1  0
 18 19  2  0
 19 20  1  0
 20 21  2  0
 21 22  1  0
 12 23  1  0
 23 24  1  0
 10  6  1  0
 22 18  1  0
 24  8  1  0
  1 25  1  0
  1 26  1  0
  1 27  1  0
  2 28  1  0
  2 29  1  0
  7 30  1  0
 11 31  1  0
 11 32  1  0
 16 33  1  0
 16 34  1  0
 16 35  1  0
 17 36  1  0
 17 37  1  0
 20 38  1  0
 21 39  1  0
 22 40  1  0
 23 41  1  0
 23 42  1  0
 24 43  1  0
 24 44  1  0
M  END
>  <Energy>  (288) 
1167.3115753293325

>  <compound_id>  (288) 
60667

>  <target_id>  (288) 
1

>  <reference_id>  (288) 
116

>  <inspiration_ids>  (288) 
[123, 116]

>  <energy_score>  (288) 
1140.101469771155

>  <distance_score>  (288) 
4.835896860699807

>  <path>  (288) 
/opt/xchem-fragalysis-2/maxwin/BulkDock/SCRATCH/511021/C60667-P116/C60667-P116.minimised.mol

>  <scratch_subdir>  (288) 
/opt/xchem-fragalysis-2/maxwin/BulkDock/SCRATCH/511021/C60667-P116

>  <fragmenstein_runtime>  (288) 
15.759390830993652

>  <fragmenstein_outcome>  (288) 
too moved

>  <fragmenstein_mode>  (288) 
expansion

>  <fragmenstein_error>  (288) 


$$$$
C60668-P123
     RDKit          3D

 45 47  0  0  0  0  0  0  0  0999 V2000
  -12.4290  -23.6955   29.1087 C   0  0  0  0  0  0  0  0  0  0  0  0
  -12.4024  -22.6605   30.2236 C   0  0  0  0  0  0  0  0  0  0  0  0
  -11.4962  -23.1167   31.2333 O   0  0  0  0  0  0  0  0  0  0  0  0
  -10.7659  -22.1759   31.8689 C   0  0  0  0  0  0  0  0  0  0  0  0
  -10.9837  -20.9811   31.7990 O   0  0  0  0  0  0  0  0  0  0  0  0
   -9.6215  -22.7948   32.7310 C   0  0  0  0  0  0  0  0  0  0  0  0
   -8.1590  -21.3982   33.2578 C   0  0  0  0  0  0  0  0  0  0  0  0
   -7.5284  -21.2516   32.0393 N   0  0  0  0  0  0  0  0  0  0  0  0
   -6.0192  -20.0941   31.4742 C   0  0  0  0  0  0  0  0  0  0  0  0
   -4.9231  -20.4748   31.5350 O   0  0  0  0  0  0  0  0  0  0  0  0
   -6.7993  -18.3759   30.6812 N   0  0  0  0  0  0  0  0  0  0  0  0
   -7.5536  -17.9484   28.7862 C   0  0  0  0  0  0  0  0  0  0  0  0
   -5.6944  -16.8403   29.9368 C   0  0  0  0  0  0  0  0  0  0  0  0
   -3.9512  -16.3301   29.1779 C   0  0  0  0  0  0  0  0  0  0  0  0
   -3.6127  -16.7243   27.8705 N   0  0  0  0  0  0  0  0  0  0  0  0
   -2.4040  -16.5161   27.3304 C   0  0  0  0  0  0  0  0  0  0  0  0
   -2.1040  -15.2937   27.9116 C   0  0  0  0  0  0  0  0  0  0  0  0
   -2.8954  -15.2402   29.3035 N   0  0  0  0  0  0  0  0  0  0  0  0
   -7.5932  -23.1255   32.6148 C   0  0  0  0  0  0  0  0  0  0  0  0
   -8.8886  -23.9456   32.2378 C   0  0  0  0  0  0  0  0  0  0  0  0
   -9.1455  -25.2690   32.9440 C   0  0  0  0  0  0  0  0  0  0  0  0
  -10.1060  -25.6881   31.9460 O   0  0  0  0  0  0  0  0  0  0  0  0
   -9.4011  -24.8487   31.0140 C   0  0  0  0  0  0  0  0  0  0  0  0
  -11.4681  -23.7142   28.5838 H   0  0  0  0  0  0  0  0  0  0  0  0
  -13.2076  -23.4722   28.3785 H   0  0  0  0  0  0  0  0  0  0  0  0
  -12.5936  -24.6996   29.5097 H   0  0  0  0  0  0  0  0  0  0  0  0
  -13.3885  -22.5447   30.6760 H   0  0  0  0  0  0  0  0  0  0  0  0
  -12.0895  -21.7004   29.7990 H   0  0  0  0  0  0  0  0  0  0  0  0
  -10.2625  -23.2757   33.4875 H   0  0  0  0  0  0  0  0  0  0  0  0
   -8.8398  -20.5267   33.1290 H   0  0  0  0  0  0  0  0  0  0  0  0
   -7.7940  -20.9515   34.1440 H   0  0  0  0  0  0  0  0  0  0  0  0
   -8.2330  -18.7355   28.4130 H   0  0  0  0  0  0  0  0  0  0  0  0
   -8.2156  -17.1201   28.5704 H   0  0  0  0  0  0  0  0  0  0  0  0
   -6.8509  -17.3546   28.2283 H   0  0  0  0  0  0  0  0  0  0  0  0
   -5.6269  -16.3632   30.9103 H   0  0  0  0  0  0  0  0  0  0  0  0
   -6.1519  -16.0753   29.3055 H   0  0  0  0  0  0  0  0  0  0  0  0
   -2.0235  -17.2816   26.6731 H   0  0  0  0  0  0  0  0  0  0  0  0
   -1.1789  -14.8184   27.9302 H   0  0  0  0  0  0  0  0  0  0  0  0
   -3.0147  -14.3335   29.6979 H   0  0  0  0  0  0  0  0  0  0  0  0
   -6.7808  -23.8481   32.4384 H   0  0  0  0  0  0  0  0  0  0  0  0
   -7.7933  -23.1180   33.7269 H   0  0  0  0  0  0  0  0  0  0  0  0
   -8.2406  -25.8709   32.8890 H   0  0  0  0  0  0  0  0  0  0  0  0
   -9.5706  -25.2762   33.9435 H   0  0  0  0  0  0  0  0  0  0  0  0
  -10.0797  -24.4944   30.2463 H   0  0  0  0  0  0  0  0  0  0  0  0
   -8.6373  -25.3867   30.4743 H   0  0  0  0  0  0  0  0  0  0  0  0
  1  2  1  0
  2  3  1  0
  3  4  1  0
  4  5  2  0
  4  6  1  0
  6  7  1  0
  7  8  1  0
  8  9  1  0
  9 10  2  0
  9 11  1  0
 11 12  1  0
 11 13  1  0
 13 14  1  0
 14 15  2  0
 15 16  1  0
 16 17  2  0
 17 18  1  0
  8 19  1  0
 19 20  1  0
 20 21  1  0
 21 22  1  0
 22 23  1  0
 20  6  1  0
 18 14  1  0
 23 20  1  0
  1 24  1  0
  1 25  1  0
  1 26  1  0
  2 27  1  0
  2 28  1  0
  6 29  1  0
  7 30  1  0
  7 31  1  0
 12 32  1  0
 12 33  1  0
 12 34  1  0
 13 35  1  0
 13 36  1  0
 16 37  1  0
 17 38  1  0
 18 39  1  0
 19 40  1  0
 19 41  1  0
 21 42  1  0
 21 43  1  0
 23 44  1  0
 23 45  1  0
M  END
>  <Energy>  (289) 
954.35937542610361

>  <compound_id>  (289) 
60668

>  <target_id>  (289) 
1

>  <reference_id>  (289) 
123

>  <inspiration_ids>  (289) 
[123, 116]

>  <energy_score>  (289) 
988.0285974289714

>  <distance_score>  (289) 
3.6128902245065437

>  <path>  (289) 
/opt/xchem-fragalysis-2/maxwin/BulkDock/SCRATCH/511021/C60668-P123/C60668-P123.minimised.mol

>  <scratch_subdir>  (289) 
/opt/xchem-fragalysis-2/maxwin/BulkDock/SCRATCH/511021/C60668-P123

>  <fragmenstein_runtime>  (289) 
22.208001613616943

>  <fragmenstein_outcome>  (289) 
too moved

>  <fragmenstein_mode>  (289) 
expansion

>  <fragmenstein_error>  (289) 


$$$$
C60668-P116
     RDKit          3D

 45 47  0  0  0  0  0  0  0  0999 V2000
  -11.9176  -23.5730   26.7206 C   0  0  0  0  0  0  0  0  0  0  0  0
  -11.7913  -22.4329   27.7117 C   0  0  0  0  0  0  0  0  0  0  0  0
  -11.1582  -22.8648   28.9116 O   0  0  0  0  0  0  0  0  0  0  0  0
  -11.5750  -22.2368   30.0570 C   0  0  0  0  0  0  0  0  0  0  0  0
  -12.1902  -21.1803   30.0694 O   0  0  0  0  0  0  0  0  0  0  0  0
  -11.1838  -23.0923   31.4317 C   0  0  0  0  0  0  0  0  0  0  0  0
  -10.2543  -21.9808   32.5119 C   0  0  0  0  0  0  0  0  0  0  0  0
   -8.9345  -21.7549   32.3289 N   0  0  0  0  0  0  0  0  0  0  0  0
   -7.6147  -20.4358   33.2000 C   0  0  0  0  0  0  0  0  0  0  0  0
   -6.9179  -20.5853   34.1424 O   0  0  0  0  0  0  0  0  0  0  0  0
   -7.7001  -18.8738   31.9460 N   0  0  0  0  0  0  0  0  0  0  0  0
   -7.0658  -18.6326   30.7904 C   0  0  0  0  0  0  0  0  0  0  0  0
   -6.5091  -17.2499   31.9268 C   0  0  0  0  0  0  0  0  0  0  0  0
   -5.3908  -16.4359   30.2215 C   0  0  0  0  0  0  0  0  0  0  0  0
   -3.9943  -15.5276   30.0439 N   0  0  0  0  0  0  0  0  0  0  0  0
   -2.7023  -15.1833   28.9722 C   0  0  0  0  0  0  0  0  0  0  0  0
   -2.9376  -16.1556   28.0861 C   0  0  0  0  0  0  0  0  0  0  0  0
   -4.4637  -16.7392   28.6670 N   0  0  0  0  0  0  0  0  0  0  0  0
   -9.1626  -23.5460   32.8330 C   0  0  0  0  0  0  0  0  0  0  0  0
   -9.7739  -24.2787   31.7374 C   0  0  0  0  0  0  0  0  0  0  0  0
   -9.8522  -25.3116   32.7669 C   0  0  0  0  0  0  0  0  0  0  0  0
   -9.2513  -26.2437   31.8586 O   0  0  0  0  0  0  0  0  0  0  0  0
   -8.6206  -25.4534   30.9502 C   0  0  0  0  0  0  0  0  0  0  0  0
  -10.9794  -24.1280   26.6262 H   0  0  0  0  0  0  0  0  0  0  0  0
  -12.2185  -23.1883   25.7429 H   0  0  0  0  0  0  0  0  0  0  0  0
  -12.6837  -24.2850   27.0156 H   0  0  0  0  0  0  0  0  0  0  0  0
  -12.7493  -21.9645   27.8902 H   0  0  0  0  0  0  0  0  0  0  0  0
  -11.1784  -21.6628   27.2860 H   0  0  0  0  0  0  0  0  0  0  0  0
  -11.8752  -23.6908   31.7601 H   0  0  0  0  0  0  0  0  0  0  0  0
  -10.8313  -22.8385   32.8007 H   0  0  0  0  0  0  0  0  0  0  0  0
  -10.4913  -21.2287   31.7114 H   0  0  0  0  0  0  0  0  0  0  0  0
   -7.1265  -19.6543   30.6706 H   0  0  0  0  0  0  0  0  0  0  0  0
   -6.4417  -18.1516   30.0528 H   0  0  0  0  0  0  0  0  0  0  0  0
   -7.8021  -18.7093   30.0180 H   0  0  0  0  0  0  0  0  0  0  0  0
   -6.9853  -16.5499   32.6646 H   0  0  0  0  0  0  0  0  0  0  0  0
   -5.7852  -17.4892   32.7813 H   0  0  0  0  0  0  0  0  0  0  0  0
   -1.9048  -14.4913   29.1965 H   0  0  0  0  0  0  0  0  0  0  0  0
   -2.5115  -16.7537   27.2851 H   0  0  0  0  0  0  0  0  0  0  0  0
   -4.5836  -17.4983   27.9933 H   0  0  0  0  0  0  0  0  0  0  0  0
   -8.4435  -23.2622   33.6733 H   0  0  0  0  0  0  0  0  0  0  0  0
   -8.2394  -24.1969   32.9719 H   0  0  0  0  0  0  0  0  0  0  0  0
  -10.8960  -24.9764   32.8244 H   0  0  0  0  0  0  0  0  0  0  0  0
  -10.4891  -26.0659   33.2726 H   0  0  0  0  0  0  0  0  0  0  0  0
   -8.6964  -25.9741   30.0142 H   0  0  0  0  0  0  0  0  0  0  0  0
   -7.5406  -25.5834   31.0163 H   0  0  0  0  0  0  0  0  0  0  0  0
  1  2  1  0
  2  3  1  0
  3  4  1  0
  4  5  2  0
  4  6  1  0
  6  7  1  0
  7  8  1  0
  8  9  1  0
  9 10  2  0
  9 11  1  0
 11 12  1  0
 11 13  1  0
 13 14  1  0
 14 15  2  0
 15 16  1  0
 16 17  2  0
 17 18  1  0
  8 19  1  0
 19 20  1  0
 20 21  1  0
 21 22  1  0
 22 23  1  0
 20  6  1  0
 18 14  1  0
 23 20  1  0
  1 24  1  0
  1 25  1  0
  1 26  1  0
  2 27  1  0
  2 28  1  0
  6 29  1  0
  7 30  1  0
  7 31  1  0
 12 32  1  0
 12 33  1  0
 12 34  1  0
 13 35  1  0
 13 36  1  0
 16 37  1  0
 17 38  1  0
 18 39  1  0
 19 40  1  0
 19 41  1  0
 21 42  1  0
 21 43  1  0
 23 44  1  0
 23 45  1  0
M  END
>  <Energy>  (290) 
1405.7201197767265

>  <compound_id>  (290) 
60668

>  <target_id>  (290) 
1

>  <reference_id>  (290) 
116

>  <inspiration_ids>  (290) 
[123, 116]

>  <energy_score>  (290) 
1439.389341779596

>  <distance_score>  (290) 
3.3910180507803744

>  <path>  (290) 
/opt/xchem-fragalysis-2/maxwin/BulkDock/SCRATCH/511021/C60668-P116/C60668-P116.minimised.mol

>  <scratch_subdir>  (290) 
/opt/xchem-fragalysis-2/maxwin/BulkDock/SCRATCH/511021/C60668-P116

>  <fragmenstein_runtime>  (290) 
20.260685920715332

>  <fragmenstein_outcome>  (290) 
too moved

>  <fragmenstein_mode>  (290) 
expansion

>  <fragmenstein_error>  (290) 


$$$$
C48737-P123
     RDKit          3D

 36 37  0  0  0  0  0  0  0  0999 V2000
  -12.3125  -21.6848   32.4316 C   0  0  0  0  0  0  0  0  0  0  0  0
  -13.2366  -21.4479   33.6726 C   0  0  0  0  0  0  0  0  0  0  0  0
  -12.8973  -22.5862   34.6295 C   0  0  0  0  0  0  0  0  0  0  0  0
  -14.6735  -21.5948   33.1156 C   0  0  0  0  0  0  0  0  0  0  0  0
  -15.2143  -20.8364   32.3192 O   0  0  0  0  0  0  0  0  0  0  0  0
  -15.3132  -22.7200   33.4967 O   0  0  0  0  0  0  0  0  0  0  0  0
  -13.0624  -20.1220   34.3458 N   0  0  0  0  0  0  0  0  0  0  0  0
  -14.0210  -19.2952   34.8608 C   0  0  0  0  0  0  0  0  0  0  0  0
  -13.4113  -18.0654   35.1087 C   0  0  0  0  0  0  0  0  0  0  0  0
  -12.0350  -18.1949   34.8570 C   0  0  0  0  0  0  0  0  0  0  0  0
  -10.9018  -17.2532   34.7980 N   0  0  0  0  0  0  0  0  0  0  0  0
  -10.8776  -15.6468   34.5197 C   0  0  0  0  0  0  0  0  0  0  0  0
  -11.7753  -14.8762   34.3835 O   0  0  0  0  0  0  0  0  0  0  0  0
   -9.2576  -15.1343   34.3044 C   0  0  0  0  0  0  0  0  0  0  0  0
   -8.7495  -14.7869   35.6006 O   0  0  0  0  0  0  0  0  0  0  0  0
   -8.7717  -13.9387   33.2085 C   0  0  0  0  0  0  0  0  0  0  0  0
   -8.4404  -12.5943   33.3895 C   0  0  0  0  0  0  0  0  0  0  0  0
   -7.9379  -12.0928   32.1946 N   0  0  0  0  0  0  0  0  0  0  0  0
   -7.9188  -13.1151   31.3105 C   0  0  0  0  0  0  0  0  0  0  0  0
   -8.3531  -14.2093   31.9053 N   0  0  0  0  0  0  0  0  0  0  0  0
  -11.8830  -19.4654   34.3561 N   0  0  0  0  0  0  0  0  0  0  0  0
  -11.8220  -22.6661   32.4485 H   0  0  0  0  0  0  0  0  0  0  0  0
  -11.5122  -20.9485   32.3427 H   0  0  0  0  0  0  0  0  0  0  0  0
  -12.8671  -21.7149   31.4904 H   0  0  0  0  0  0  0  0  0  0  0  0
  -12.8425  -22.2437   35.6518 H   0  0  0  0  0  0  0  0  0  0  0  0
  -13.5857  -23.4281   34.5653 H   0  0  0  0  0  0  0  0  0  0  0  0
  -11.9369  -23.0517   34.4167 H   0  0  0  0  0  0  0  0  0  0  0  0
  -15.6653  -23.1413   32.6636 H   0  0  0  0  0  0  0  0  0  0  0  0
  -15.0599  -19.5859   34.9283 H   0  0  0  0  0  0  0  0  0  0  0  0
  -13.9175  -17.1675   35.4321 H   0  0  0  0  0  0  0  0  0  0  0  0
   -9.9640  -17.6143   34.7790 H   0  0  0  0  0  0  0  0  0  0  0  0
   -8.7037  -16.0196   33.9679 H   0  0  0  0  0  0  0  0  0  0  0  0
   -9.2898  -14.0283   35.8816 H   0  0  0  0  0  0  0  0  0  0  0  0
   -8.5116  -11.9603   34.2613 H   0  0  0  0  0  0  0  0  0  0  0  0
   -7.6096  -11.1514   32.0345 H   0  0  0  0  0  0  0  0  0  0  0  0
   -7.5570  -13.0298   30.2946 H   0  0  0  0  0  0  0  0  0  0  0  0
  1  2  1  0
  2  3  1  0
  2  4  1  0
  4  5  2  0
  4  6  1  0
  2  7  1  0
  7  8  1  0
  8  9  2  0
  9 10  1  0
 10 11  1  0
 11 12  1  0
 12 13  2  0
 12 14  1  0
 14 15  1  0
 14 16  1  0
 16 17  2  0
 17 18  1  0
 18 19  1  0
 19 20  2  0
 10 21  2  0
 21  7  1  0
 20 16  1  0
  1 22  1  0
  1 23  1  0
  1 24  1  0
  3 25  1  0
  3 26  1  0
  3 27  1  0
  6 28  1  0
  8 29  1  0
  9 30  1  0
 11 31  1  0
 14 32  1  0
 15 33  1  0
 17 34  1  0
 18 35  1  0
 19 36  1  0
M  END
>  <Energy>  (291) 
104.43654240642002

>  <compound_id>  (291) 
48737

>  <target_id>  (291) 
1

>  <reference_id>  (291) 
123

>  <inspiration_ids>  (291) 
[123, 116]

>  <energy_score>  (291) 
48.2041354886037

>  <distance_score>  (291) 
7.729151575704765

>  <path>  (291) 
/opt/xchem-fragalysis-2/maxwin/BulkDock/SCRATCH/511021/C48737-P123/C48737-P123.minimised.mol

>  <scratch_subdir>  (291) 
/opt/xchem-fragalysis-2/maxwin/BulkDock/SCRATCH/511021/C48737-P123

>  <fragmenstein_runtime>  (291) 
19.625579118728638

>  <fragmenstein_outcome>  (291) 
too moved

>  <fragmenstein_mode>  (291) 
expansion

>  <fragmenstein_error>  (291) 


$$$$
C48737-P116
     RDKit          3D

 36 37  0  0  0  0  0  0  0  0999 V2000
  -12.9984  -23.7992   36.1073 C   0  0  0  0  0  0  0  0  0  0  0  0
  -13.0920  -24.9107   34.5081 C   0  0  0  0  0  0  0  0  0  0  0  0
  -13.0845  -26.8466   34.9266 C   0  0  0  0  0  0  0  0  0  0  0  0
  -11.8985  -24.7185   36.2704 C   0  0  0  0  0  0  0  0  0  0  0  0
  -11.4761  -25.6896   36.9236 O   0  0  0  0  0  0  0  0  0  0  0  0
  -11.3586  -23.0499   36.7329 O   0  0  0  0  0  0  0  0  0  0  0  0
  -11.4198  -24.8093   33.1093 N   0  0  0  0  0  0  0  0  0  0  0  0
  -11.1063  -23.7915   32.1200 C   0  0  0  0  0  0  0  0  0  0  0  0
   -9.8952  -23.4906   32.5313 C   0  0  0  0  0  0  0  0  0  0  0  0
   -9.1112  -24.4560   32.9231 C   0  0  0  0  0  0  0  0  0  0  0  0
   -7.6950  -23.8681   33.4987 N   0  0  0  0  0  0  0  0  0  0  0  0
   -7.3987  -22.6158   34.3995 C   0  0  0  0  0  0  0  0  0  0  0  0
   -8.1562  -21.8459   34.9507 O   0  0  0  0  0  0  0  0  0  0  0  0
   -5.8965  -22.2610   34.4989 C   0  0  0  0  0  0  0  0  0  0  0  0
   -5.2226  -22.8117   33.3772 O   0  0  0  0  0  0  0  0  0  0  0  0
   -5.6646  -20.7033   34.4671 C   0  0  0  0  0  0  0  0  0  0  0  0
   -4.5754  -19.9436   34.8738 C   0  0  0  0  0  0  0  0  0  0  0  0
   -4.8786  -18.6320   34.6161 N   0  0  0  0  0  0  0  0  0  0  0  0
   -6.1257  -18.6083   34.0794 C   0  0  0  0  0  0  0  0  0  0  0  0
   -6.5896  -19.8244   33.9210 N   0  0  0  0  0  0  0  0  0  0  0  0
  -10.0436  -25.4364   33.1154 N   0  0  0  0  0  0  0  0  0  0  0  0
  -13.7149  -24.6420   35.8459 H   0  0  0  0  0  0  0  0  0  0  0  0
  -12.7579  -22.7175   35.9095 H   0  0  0  0  0  0  0  0  0  0  0  0
  -13.7225  -22.8462   36.3317 H   0  0  0  0  0  0  0  0  0  0  0  0
  -13.1850  -27.0120   35.9964 H   0  0  0  0  0  0  0  0  0  0  0  0
  -13.7605  -27.4342   34.3974 H   0  0  0  0  0  0  0  0  0  0  0  0
  -12.1406  -27.3692   34.6543 H   0  0  0  0  0  0  0  0  0  0  0  0
  -11.6967  -22.9067   37.6612 H   0  0  0  0  0  0  0  0  0  0  0  0
  -11.7266  -23.0634   31.6178 H   0  0  0  0  0  0  0  0  0  0  0  0
   -9.6226  -22.4495   32.4454 H   0  0  0  0  0  0  0  0  0  0  0  0
   -6.8345  -24.2300   33.1372 H   0  0  0  0  0  0  0  0  0  0  0  0
   -5.5221  -22.6754   35.4350 H   0  0  0  0  0  0  0  0  0  0  0  0
   -5.2019  -23.7650   33.4467 H   0  0  0  0  0  0  0  0  0  0  0  0
   -3.6282  -20.2077   35.3062 H   0  0  0  0  0  0  0  0  0  0  0  0
   -4.2925  -17.8297   34.7984 H   0  0  0  0  0  0  0  0  0  0  0  0
   -6.6338  -17.6980   33.7947 H   0  0  0  0  0  0  0  0  0  0  0  0
  1  2  1  0
  2  3  1  0
  2  4  1  0
  4  5  2  0
  4  6  1  0
  2  7  1  0
  7  8  1  0
  8  9  2  0
  9 10  1  0
 10 11  1  0
 11 12  1  0
 12 13  2  0
 12 14  1  0
 14 15  1  0
 14 16  1  0
 16 17  2  0
 17 18  1  0
 18 19  1  0
 19 20  2  0
 10 21  2  0
 21  7  1  0
 20 16  1  0
  1 22  1  0
  1 23  1  0
  1 24  1  0
  3 25  1  0
  3 26  1  0
  3 27  1  0
  6 28  1  0
  8 29  1  0
  9 30  1  0
 11 31  1  0
 14 32  1  0
 15 33  1  0
 17 34  1  0
 18 35  1  0
 19 36  1  0
M  END
>  <Energy>  (292) 
893.48122940014878

>  <compound_id>  (292) 
48737

>  <target_id>  (292) 
1

>  <reference_id>  (292) 
116

>  <inspiration_ids>  (292) 
[123, 116]

>  <energy_score>  (292) 
831.2308382576856

>  <distance_score>  (292) 
7.5829014229262555

>  <path>  (292) 
/opt/xchem-fragalysis-2/maxwin/BulkDock/SCRATCH/511021/C48737-P116/C48737-P116.minimised.mol

>  <scratch_subdir>  (292) 
/opt/xchem-fragalysis-2/maxwin/BulkDock/SCRATCH/511021/C48737-P116

>  <fragmenstein_runtime>  (292) 
16.489944219589233

>  <fragmenstein_outcome>  (292) 
too moved

>  <fragmenstein_mode>  (292) 
expansion

>  <fragmenstein_error>  (292) 


$$$$
C48738-P123
     RDKit          3D

 38 39  0  0  0  0  0  0  0  0999 V2000
  -15.9956  -19.5735   34.1324 C   0  0  0  0  0  0  0  0  0  0  0  0
  -15.9766  -18.1765   34.7827 C   0  0  0  0  0  0  0  0  0  0  0  0
  -16.6333  -18.2651   36.1745 C   0  0  0  0  0  0  0  0  0  0  0  0
  -16.8091  -17.2528   33.8877 C   0  0  0  0  0  0  0  0  0  0  0  0
  -16.9893  -17.3684   32.6820 O   0  0  0  0  0  0  0  0  0  0  0  0
  -17.4086  -16.2271   34.5344 O   0  0  0  0  0  0  0  0  0  0  0  0
  -14.5941  -17.6851   34.9121 N   0  0  0  0  0  0  0  0  0  0  0  0
  -13.5770  -18.2799   35.6101 C   0  0  0  0  0  0  0  0  0  0  0  0
  -12.5233  -17.3990   35.5847 C   0  0  0  0  0  0  0  0  0  0  0  0
  -12.9645  -16.3211   34.7897 C   0  0  0  0  0  0  0  0  0  0  0  0
  -12.2306  -15.2634   34.3372 N   0  0  0  0  0  0  0  0  0  0  0  0
  -10.8643  -14.8762   34.6014 C   0  0  0  0  0  0  0  0  0  0  0  0
  -10.0493  -15.3401   35.3486 O   0  0  0  0  0  0  0  0  0  0  0  0
  -10.4732  -13.7355   33.6425 C   0  0  0  0  0  0  0  0  0  0  0  0
   -8.9770  -13.3990   33.7152 C   0  0  0  0  0  0  0  0  0  0  0  0
   -8.4619  -12.6715   32.5192 C   0  0  0  0  0  0  0  0  0  0  0  0
   -8.0301  -11.3682   32.3828 C   0  0  0  0  0  0  0  0  0  0  0  0
   -7.3758  -11.3364   31.1812 N   0  0  0  0  0  0  0  0  0  0  0  0
   -7.4882  -12.5720   30.6176 C   0  0  0  0  0  0  0  0  0  0  0  0
   -8.2029  -13.3705   31.3697 N   0  0  0  0  0  0  0  0  0  0  0  0
  -14.2269  -16.4959   34.3886 N   0  0  0  0  0  0  0  0  0  0  0  0
  -15.4516  -20.3135   34.7268 H   0  0  0  0  0  0  0  0  0  0  0  0
  -15.5374  -19.5586   33.1378 H   0  0  0  0  0  0  0  0  0  0  0  0
  -17.0229  -19.9369   34.0100 H   0  0  0  0  0  0  0  0  0  0  0  0
  -16.5753  -17.3086   36.7080 H   0  0  0  0  0  0  0  0  0  0  0  0
  -16.1461  -19.0116   36.8088 H   0  0  0  0  0  0  0  0  0  0  0  0
  -17.6925  -18.5369   36.0963 H   0  0  0  0  0  0  0  0  0  0  0  0
  -17.8088  -15.7021   33.8106 H   0  0  0  0  0  0  0  0  0  0  0  0
  -13.6822  -19.2510   36.0587 H   0  0  0  0  0  0  0  0  0  0  0  0
  -11.5412  -17.5382   36.0129 H   0  0  0  0  0  0  0  0  0  0  0  0
  -12.5935  -14.6993   33.5856 H   0  0  0  0  0  0  0  0  0  0  0  0
  -11.0684  -12.8484   33.8884 H   0  0  0  0  0  0  0  0  0  0  0  0
  -10.7351  -14.0463   32.6238 H   0  0  0  0  0  0  0  0  0  0  0  0
   -8.7812  -12.8139   34.6223 H   0  0  0  0  0  0  0  0  0  0  0  0
   -8.3913  -14.3212   33.8172 H   0  0  0  0  0  0  0  0  0  0  0  0
   -8.0345  -10.5257   33.0589 H   0  0  0  0  0  0  0  0  0  0  0  0
   -6.8419  -10.5643   30.8122 H   0  0  0  0  0  0  0  0  0  0  0  0
   -7.0151  -12.8530   29.6862 H   0  0  0  0  0  0  0  0  0  0  0  0
  1  2  1  0
  2  3  1  0
  2  4  1  0
  4  5  2  0
  4  6  1  0
  2  7  1  0
  7  8  1  0
  8  9  2  0
  9 10  1  0
 10 11  1  0
 11 12  1  0
 12 13  2  0
 12 14  1  0
 14 15  1  0
 15 16  1  0
 16 17  2  0
 17 18  1  0
 18 19  1  0
 19 20  2  0
 10 21  2  0
 21  7  1  0
 20 16  1  0
  1 22  1  0
  1 23  1  0
  1 24  1  0
  3 25  1  0
  3 26  1  0
  3 27  1  0
  6 28  1  0
  8 29  1  0
  9 30  1  0
 11 31  1  0
 14 32  1  0
 14 33  1  0
 15 34  1  0
 15 35  1  0
 17 36  1  0
 18 37  1  0
 19 38  1  0
M  END
>  <Energy>  (293) 
-40.792701427791236

>  <compound_id>  (293) 
48738

>  <target_id>  (293) 
1

>  <reference_id>  (293) 
123

>  <inspiration_ids>  (293) 
[123, 116]

>  <energy_score>  (293) 
-62.82618405681643

>  <distance_score>  (293) 
8.108527468724098

>  <path>  (293) 
/opt/xchem-fragalysis-2/maxwin/BulkDock/SCRATCH/511021/C48738-P123/C48738-P123.minimised.mol

>  <scratch_subdir>  (293) 
/opt/xchem-fragalysis-2/maxwin/BulkDock/SCRATCH/511021/C48738-P123

>  <fragmenstein_runtime>  (293) 
26.233654260635376

>  <fragmenstein_outcome>  (293) 
too moved

>  <fragmenstein_mode>  (293) 
expansion

>  <fragmenstein_error>  (293) 


$$$$
C48738-P116
     RDKit          3D

 38 39  0  0  0  0  0  0  0  0999 V2000
  -11.1114  -28.6230   35.0569 C   0  0  0  0  0  0  0  0  0  0  0  0
  -11.6010  -27.3875   33.8212 C   0  0  0  0  0  0  0  0  0  0  0  0
  -12.9277  -27.2570   34.6901 C   0  0  0  0  0  0  0  0  0  0  0  0
  -11.6832  -28.5976   32.7607 C   0  0  0  0  0  0  0  0  0  0  0  0
  -12.2026  -29.7016   32.9156 O   0  0  0  0  0  0  0  0  0  0  0  0
  -11.1368  -28.2950   31.5866 O   0  0  0  0  0  0  0  0  0  0  0  0
  -10.6893  -25.9710   33.1373 N   0  0  0  0  0  0  0  0  0  0  0  0
  -10.6329  -24.4829   32.3940 C   0  0  0  0  0  0  0  0  0  0  0  0
   -9.3616  -24.6286   31.8364 C   0  0  0  0  0  0  0  0  0  0  0  0
   -8.6927  -24.4996   32.9644 C   0  0  0  0  0  0  0  0  0  0  0  0
   -7.7189  -23.4551   33.8335 N   0  0  0  0  0  0  0  0  0  0  0  0
   -6.3100  -23.1331   33.7050 C   0  0  0  0  0  0  0  0  0  0  0  0
   -5.4674  -23.5950   32.9956 O   0  0  0  0  0  0  0  0  0  0  0  0
   -6.0534  -21.8888   34.6579 C   0  0  0  0  0  0  0  0  0  0  0  0
   -5.1031  -20.8143   34.0997 C   0  0  0  0  0  0  0  0  0  0  0  0
   -5.4214  -19.3646   34.2676 C   0  0  0  0  0  0  0  0  0  0  0  0
   -4.4948  -18.3418   34.3865 C   0  0  0  0  0  0  0  0  0  0  0  0
   -5.2034  -17.2020   34.1678 N   0  0  0  0  0  0  0  0  0  0  0  0
   -6.5194  -17.5463   34.0729 C   0  0  0  0  0  0  0  0  0  0  0  0
   -6.6804  -18.8471   34.1311 N   0  0  0  0  0  0  0  0  0  0  0  0
   -9.6223  -25.2753   33.4624 N   0  0  0  0  0  0  0  0  0  0  0  0
  -10.5331  -29.4878   34.6787 H   0  0  0  0  0  0  0  0  0  0  0  0
  -12.0175  -29.1218   35.4033 H   0  0  0  0  0  0  0  0  0  0  0  0
  -10.5879  -28.2593   35.9110 H   0  0  0  0  0  0  0  0  0  0  0  0
  -13.4686  -28.1831   34.5378 H   0  0  0  0  0  0  0  0  0  0  0  0
  -12.7687  -27.1431   35.7702 H   0  0  0  0  0  0  0  0  0  0  0  0
  -13.5537  -26.4399   34.3711 H   0  0  0  0  0  0  0  0  0  0  0  0
  -11.5040  -28.8923   30.8989 H   0  0  0  0  0  0  0  0  0  0  0  0
  -11.4012  -23.8543   32.0377 H   0  0  0  0  0  0  0  0  0  0  0  0
   -8.9439  -25.4980   31.3069 H   0  0  0  0  0  0  0  0  0  0  0  0
   -8.1483  -22.8050   34.4764 H   0  0  0  0  0  0  0  0  0  0  0  0
   -5.6596  -22.2872   35.5968 H   0  0  0  0  0  0  0  0  0  0  0  0
   -7.0013  -21.3986   34.9051 H   0  0  0  0  0  0  0  0  0  0  0  0
   -4.8983  -20.9948   33.0450 H   0  0  0  0  0  0  0  0  0  0  0  0
   -4.1704  -20.8849   34.6472 H   0  0  0  0  0  0  0  0  0  0  0  0
   -3.4171  -18.3509   34.4695 H   0  0  0  0  0  0  0  0  0  0  0  0
   -4.8184  -16.2706   34.1153 H   0  0  0  0  0  0  0  0  0  0  0  0
   -7.3132  -16.8223   33.9527 H   0  0  0  0  0  0  0  0  0  0  0  0
  1  2  1  0
  2  3  1  0
  2  4  1  0
  4  5  2  0
  4  6  1  0
  2  7  1  0
  7  8  1  0
  8  9  2  0
  9 10  1  0
 10 11  1  0
 11 12  1  0
 12 13  2  0
 12 14  1  0
 14 15  1  0
 15 16  1  0
 16 17  2  0
 17 18  1  0
 18 19  1  0
 19 20  2  0
 10 21  2  0
 21  7  1  0
 20 16  1  0
  1 22  1  0
  1 23  1  0
  1 24  1  0
  3 25  1  0
  3 26  1  0
  3 27  1  0
  6 28  1  0
  8 29  1  0
  9 30  1  0
 11 31  1  0
 14 32  1  0
 14 33  1  0
 15 34  1  0
 15 35  1  0
 17 36  1  0
 18 37  1  0
 19 38  1  0
M  END
>  <Energy>  (294) 
393.18279567967568

>  <compound_id>  (294) 
48738

>  <target_id>  (294) 
1

>  <reference_id>  (294) 
116

>  <inspiration_ids>  (294) 
[123, 116]

>  <energy_score>  (294) 
371.1493130506433

>  <distance_score>  (294) 
6.931083054138662

>  <path>  (294) 
/opt/xchem-fragalysis-2/maxwin/BulkDock/SCRATCH/511021/C48738-P116/C48738-P116.minimised.mol

>  <scratch_subdir>  (294) 
/opt/xchem-fragalysis-2/maxwin/BulkDock/SCRATCH/511021/C48738-P116

>  <fragmenstein_runtime>  (294) 
33.86417484283447

>  <fragmenstein_outcome>  (294) 
too moved

>  <fragmenstein_mode>  (294) 
expansion

>  <fragmenstein_error>  (294) 


$$$$
C48739-P123
     RDKit          3D

 43 44  0  0  0  0  0  0  0  0999 V2000
  -10.5020  -26.8086   31.3227 C   0  0  0  0  0  0  0  0  0  0  0  0
  -10.7634  -25.9230   32.5183 C   0  0  0  0  0  0  0  0  0  0  0  0
  -10.1751  -24.6127   32.4311 N   0  0  0  0  0  0  0  0  0  0  0  0
  -10.9797  -23.6517   31.9233 C   0  0  0  0  0  0  0  0  0  0  0  0
  -10.3418  -22.5240   32.2362 C   0  0  0  0  0  0  0  0  0  0  0  0
   -8.8942  -22.9231   33.0448 C   0  0  0  0  0  0  0  0  0  0  0  0
   -7.8511  -21.4247   33.2928 C   0  0  0  0  0  0  0  0  0  0  0  0
   -8.1000  -20.3434   34.4088 O   0  0  0  0  0  0  0  0  0  0  0  0
   -7.0371  -20.9732   32.7361 N   0  0  0  0  0  0  0  0  0  0  0  0
   -5.9566  -19.3387   32.5902 C   0  0  0  0  0  0  0  0  0  0  0  0
   -4.8648  -20.0811   32.1341 C   0  0  0  0  0  0  0  0  0  0  0  0
   -6.0557  -17.4170   31.8582 C   0  0  0  0  0  0  0  0  0  0  0  0
   -5.2677  -16.5516   30.2199 N   0  0  0  0  0  0  0  0  0  0  0  0
   -3.5276  -15.9050   29.8754 C   0  0  0  0  0  0  0  0  0  0  0  0
   -2.6841  -15.8803   30.7556 O   0  0  0  0  0  0  0  0  0  0  0  0
   -2.7400  -15.3976   28.2534 C   0  0  0  0  0  0  0  0  0  0  0  0
   -1.3120  -15.2169   28.5788 O   0  0  0  0  0  0  0  0  0  0  0  0
   -2.5546  -14.5277   27.1051 C   0  0  0  0  0  0  0  0  0  0  0  0
   -1.8093  -14.5668   26.0483 C   0  0  0  0  0  0  0  0  0  0  0  0
   -2.4268  -14.7876   25.0151 N   0  0  0  0  0  0  0  0  0  0  0  0
   -2.7591  -13.0108   25.4153 C   0  0  0  0  0  0  0  0  0  0  0  0
   -3.1645  -13.0663   26.6499 N   0  0  0  0  0  0  0  0  0  0  0  0
   -8.8935  -24.2685   32.8641 N   0  0  0  0  0  0  0  0  0  0  0  0
  -10.8454  -26.3369   30.3955 H   0  0  0  0  0  0  0  0  0  0  0  0
  -11.0412  -27.7525   31.4384 H   0  0  0  0  0  0  0  0  0  0  0  0
   -9.4439  -27.0225   31.2060 H   0  0  0  0  0  0  0  0  0  0  0  0
  -11.8460  -25.7600   32.5212 H   0  0  0  0  0  0  0  0  0  0  0  0
  -10.5616  -26.2976   33.5148 H   0  0  0  0  0  0  0  0  0  0  0  0
  -11.9382  -23.8442   31.4572 H   0  0  0  0  0  0  0  0  0  0  0  0
  -10.6303  -21.4968   32.0231 H   0  0  0  0  0  0  0  0  0  0  0  0
   -6.4252  -20.9056   32.0073 H   0  0  0  0  0  0  0  0  0  0  0  0
   -6.5121  -19.0958   33.5059 H   0  0  0  0  0  0  0  0  0  0  0  0
   -3.9718  -19.7324   32.5950 H   0  0  0  0  0  0  0  0  0  0  0  0
   -4.9594  -20.1314   31.1140 H   0  0  0  0  0  0  0  0  0  0  0  0
   -4.9207  -21.1434   32.3421 H   0  0  0  0  0  0  0  0  0  0  0  0
   -7.0711  -17.6491   31.6767 H   0  0  0  0  0  0  0  0  0  0  0  0
   -5.7850  -16.7619   32.6834 H   0  0  0  0  0  0  0  0  0  0  0  0
   -5.7820  -16.5691   29.3601 H   0  0  0  0  0  0  0  0  0  0  0  0
   -2.8340  -16.3992   27.7208 H   0  0  0  0  0  0  0  0  0  0  0  0
   -1.3283  -14.7228   29.4201 H   0  0  0  0  0  0  0  0  0  0  0  0
   -1.1567  -13.7294   25.6499 H   0  0  0  0  0  0  0  0  0  0  0  0
   -2.0939  -15.1653   24.1238 H   0  0  0  0  0  0  0  0  0  0  0  0
   -3.2720  -12.3707   24.7126 H   0  0  0  0  0  0  0  0  0  0  0  0
  1  2  1  0
  2  3  1  0
  3  4  1  0
  4  5  2  0
  5  6  1  0
  6  7  1  0
  7  8  2  0
  7  9  1  0
  9 10  1  0
 10 11  1  0
 10 12  1  0
 12 13  1  0
 13 14  1  0
 14 15  2  0
 14 16  1  0
 16 17  1  0
 16 18  1  0
 18 19  2  0
 19 20  1  0
 20 21  1  0
 21 22  2  0
  6 23  2  0
 23  3  1  0
 22 18  1  0
  1 24  1  0
  1 25  1  0
  1 26  1  0
  2 27  1  0
  2 28  1  0
  4 29  1  0
  5 30  1  0
  9 31  1  0
 10 32  1  0
 11 33  1  0
 11 34  1  0
 11 35  1  0
 12 36  1  0
 12 37  1  0
 13 38  1  0
 16 39  1  0
 17 40  1  0
 19 41  1  0
 20 42  1  0
 21 43  1  0
M  END
>  <Energy>  (295) 
1052.5331597516981

>  <compound_id>  (295) 
48739

>  <target_id>  (295) 
1

>  <reference_id>  (295) 
123

>  <inspiration_ids>  (295) 
[123, 116]

>  <energy_score>  (295) 
940.7025234379734

>  <distance_score>  (295) 
2.881021442616428

>  <path>  (295) 
/opt/xchem-fragalysis-2/maxwin/BulkDock/SCRATCH/511021/C48739-P123/C48739-P123.minimised.mol

>  <scratch_subdir>  (295) 
/opt/xchem-fragalysis-2/maxwin/BulkDock/SCRATCH/511021/C48739-P123

>  <fragmenstein_runtime>  (295) 
16.182806968688965

>  <fragmenstein_outcome>  (295) 
too moved

>  <fragmenstein_mode>  (295) 
expansion

>  <fragmenstein_error>  (295) 


$$$$
C48739-P116
     RDKit          3D

 43 44  0  0  0  0  0  0  0  0999 V2000
  -11.1027  -28.0919   32.0723 C   0  0  0  0  0  0  0  0  0  0  0  0
  -11.0537  -26.8196   33.1281 C   0  0  0  0  0  0  0  0  0  0  0  0
  -10.3450  -25.3730   32.9943 N   0  0  0  0  0  0  0  0  0  0  0  0
  -10.7887  -24.3224   32.1655 C   0  0  0  0  0  0  0  0  0  0  0  0
   -9.5908  -24.4747   31.5842 C   0  0  0  0  0  0  0  0  0  0  0  0
   -9.4076  -23.6804   32.5976 C   0  0  0  0  0  0  0  0  0  0  0  0
   -9.3844  -22.0088   32.5356 C   0  0  0  0  0  0  0  0  0  0  0  0
  -10.2000  -21.3618   31.8722 O   0  0  0  0  0  0  0  0  0  0  0  0
   -8.0979  -21.4596   33.6711 N   0  0  0  0  0  0  0  0  0  0  0  0
   -7.6523  -20.0332   34.0668 C   0  0  0  0  0  0  0  0  0  0  0  0
   -8.7739  -19.1860   34.6671 C   0  0  0  0  0  0  0  0  0  0  0  0
   -6.5268  -20.1443   35.1637 C   0  0  0  0  0  0  0  0  0  0  0  0
   -5.1914  -19.5839   34.9462 N   0  0  0  0  0  0  0  0  0  0  0  0
   -4.7677  -18.2428   34.5467 C   0  0  0  0  0  0  0  0  0  0  0  0
   -5.4106  -17.2869   34.2188 O   0  0  0  0  0  0  0  0  0  0  0  0
   -3.1919  -18.1794   34.7236 C   0  0  0  0  0  0  0  0  0  0  0  0
   -2.6503  -19.5027   34.6921 O   0  0  0  0  0  0  0  0  0  0  0  0
   -2.3407  -17.1980   33.9301 C   0  0  0  0  0  0  0  0  0  0  0  0
   -2.2569  -15.8188   33.9648 C   0  0  0  0  0  0  0  0  0  0  0  0
   -1.1861  -15.4635   33.1850 N   0  0  0  0  0  0  0  0  0  0  0  0
   -0.6019  -16.6089   32.7525 C   0  0  0  0  0  0  0  0  0  0  0  0
   -1.2684  -17.6587   33.1755 N   0  0  0  0  0  0  0  0  0  0  0  0
   -9.0864  -24.8114   33.1480 N   0  0  0  0  0  0  0  0  0  0  0  0
  -11.1910  -29.0431   32.6136 H   0  0  0  0  0  0  0  0  0  0  0  0
  -10.2983  -28.0870   31.3599 H   0  0  0  0  0  0  0  0  0  0  0  0
  -11.9183  -28.1173   31.3795 H   0  0  0  0  0  0  0  0  0  0  0  0
  -11.2940  -27.1652   34.1440 H   0  0  0  0  0  0  0  0  0  0  0  0
  -11.9494  -26.4668   32.8843 H   0  0  0  0  0  0  0  0  0  0  0  0
  -11.4167  -23.4525   32.2179 H   0  0  0  0  0  0  0  0  0  0  0  0
   -8.9543  -25.3711   31.3127 H   0  0  0  0  0  0  0  0  0  0  0  0
   -7.6530  -22.2605   34.1177 H   0  0  0  0  0  0  0  0  0  0  0  0
   -7.1855  -19.5350   33.2129 H   0  0  0  0  0  0  0  0  0  0  0  0
   -9.2246  -19.6791   35.5340 H   0  0  0  0  0  0  0  0  0  0  0  0
   -8.3881  -18.2142   34.9955 H   0  0  0  0  0  0  0  0  0  0  0  0
   -9.5661  -18.9799   33.9523 H   0  0  0  0  0  0  0  0  0  0  0  0
   -6.8668  -19.6784   36.0966 H   0  0  0  0  0  0  0  0  0  0  0  0
   -6.3453  -21.1975   35.4071 H   0  0  0  0  0  0  0  0  0  0  0  0
   -4.3644  -20.1702   35.0779 H   0  0  0  0  0  0  0  0  0  0  0  0
   -3.0577  -17.8904   35.7640 H   0  0  0  0  0  0  0  0  0  0  0  0
   -2.6814  -19.7581   33.7475 H   0  0  0  0  0  0  0  0  0  0  0  0
   -2.8327  -15.0535   34.4546 H   0  0  0  0  0  0  0  0  0  0  0  0
   -0.8820  -14.5233   32.9767 H   0  0  0  0  0  0  0  0  0  0  0  0
    0.2806  -16.6229   32.1264 H   0  0  0  0  0  0  0  0  0  0  0  0
  1  2  1  0
  2  3  1  0
  3  4  1  0
  4  5  2  0
  5  6  1  0
  6  7  1  0
  7  8  2  0
  7  9  1  0
  9 10  1  0
 10 11  1  0
 10 12  1  0
 12 13  1  0
 13 14  1  0
 14 15  2  0
 14 16  1  0
 16 17  1  0
 16 18  1  0
 18 19  2  0
 19 20  1  0
 20 21  1  0
 21 22  2  0
  6 23  2  0
 23  3  1  0
 22 18  1  0
  1 24  1  0
  1 25  1  0
  1 26  1  0
  2 27  1  0
  2 28  1  0
  4 29  1  0
  5 30  1  0
  9 31  1  0
 10 32  1  0
 11 33  1  0
 11 34  1  0
 11 35  1  0
 12 36  1  0
 12 37  1  0
 13 38  1  0
 16 39  1  0
 17 40  1  0
 19 41  1  0
 20 42  1  0
 21 43  1  0
M  END
>  <Energy>  (296) 
424.69689959006939

>  <compound_id>  (296) 
48739

>  <target_id>  (296) 
1

>  <reference_id>  (296) 
116

>  <inspiration_ids>  (296) 
[123, 116]

>  <energy_score>  (296) 
312.86626327633985

>  <distance_score>  (296) 
5.07674710107387

>  <path>  (296) 
/opt/xchem-fragalysis-2/maxwin/BulkDock/SCRATCH/511021/C48739-P116/C48739-P116.minimised.mol

>  <scratch_subdir>  (296) 
/opt/xchem-fragalysis-2/maxwin/BulkDock/SCRATCH/511021/C48739-P116

>  <fragmenstein_runtime>  (296) 
24.5215322971344

>  <fragmenstein_outcome>  (296) 
too moved

>  <fragmenstein_mode>  (296) 
expansion

>  <fragmenstein_error>  (296) 


$$$$
C48740-P123
     RDKit          3D

 45 46  0  0  0  0  0  0  0  0999 V2000
   -4.6236  -14.6977   34.9446 C   0  0  0  0  0  0  0  0  0  0  0  0
   -5.8381  -15.8237   33.9543 C   0  0  0  0  0  0  0  0  0  0  0  0
   -5.1933  -16.2524   32.5362 N   0  0  0  0  0  0  0  0  0  0  0  0
   -6.4893  -17.5877   32.7733 C   0  0  0  0  0  0  0  0  0  0  0  0
   -8.0267  -18.1701   33.8433 C   0  0  0  0  0  0  0  0  0  0  0  0
   -8.9639  -19.5751   33.1536 N   0  0  0  0  0  0  0  0  0  0  0  0
  -10.5200  -19.8802   33.1248 C   0  0  0  0  0  0  0  0  0  0  0  0
  -11.4509  -19.2816   33.6386 O   0  0  0  0  0  0  0  0  0  0  0  0
  -10.9779  -21.1445   32.1461 C   0  0  0  0  0  0  0  0  0  0  0  0
  -11.1189  -22.6186   32.3672 N   0  0  0  0  0  0  0  0  0  0  0  0
  -12.2002  -23.3524   31.9495 C   0  0  0  0  0  0  0  0  0  0  0  0
  -11.7776  -24.6563   31.8397 C   0  0  0  0  0  0  0  0  0  0  0  0
  -10.4537  -24.6525   32.2641 C   0  0  0  0  0  0  0  0  0  0  0  0
  -10.0388  -23.4218   32.5414 N   0  0  0  0  0  0  0  0  0  0  0  0
   -3.2906  -16.3336   32.5099 C   0  0  0  0  0  0  0  0  0  0  0  0
   -2.8376  -17.3841   32.7716 O   0  0  0  0  0  0  0  0  0  0  0  0
   -1.7892  -15.0097   32.3195 C   0  0  0  0  0  0  0  0  0  0  0  0
   -0.8041  -13.2854   31.8076 C   0  0  0  0  0  0  0  0  0  0  0  0
   -1.1093  -11.5206   30.8535 C   0  0  0  0  0  0  0  0  0  0  0  0
   -0.3220  -10.7076   29.8926 C   0  0  0  0  0  0  0  0  0  0  0  0
   -0.5946   -9.3472   30.0256 N   0  0  0  0  0  0  0  0  0  0  0  0
   -1.4053   -9.2086   31.1489 C   0  0  0  0  0  0  0  0  0  0  0  0
   -1.9429  -10.3775   31.4252 N   0  0  0  0  0  0  0  0  0  0  0  0
   -4.5685  -13.6394   34.9366 H   0  0  0  0  0  0  0  0  0  0  0  0
   -4.7309  -14.8882   36.0036 H   0  0  0  0  0  0  0  0  0  0  0  0
   -3.5666  -14.7500   34.6578 H   0  0  0  0  0  0  0  0  0  0  0  0
   -6.7735  -15.2551   33.8676 H   0  0  0  0  0  0  0  0  0  0  0  0
   -6.5196  -16.5358   34.4808 H   0  0  0  0  0  0  0  0  0  0  0  0
   -5.8951  -18.4917   32.6877 H   0  0  0  0  0  0  0  0  0  0  0  0
   -6.8501  -17.6755   31.7722 H   0  0  0  0  0  0  0  0  0  0  0  0
   -8.7254  -17.3445   34.0043 H   0  0  0  0  0  0  0  0  0  0  0  0
   -7.6096  -18.5633   34.7731 H   0  0  0  0  0  0  0  0  0  0  0  0
   -8.4667  -20.3212   32.6947 H   0  0  0  0  0  0  0  0  0  0  0  0
  -12.0267  -20.9183   31.9724 H   0  0  0  0  0  0  0  0  0  0  0  0
  -10.4968  -21.0474   31.1770 H   0  0  0  0  0  0  0  0  0  0  0  0
  -13.1518  -22.8894   31.7329 H   0  0  0  0  0  0  0  0  0  0  0  0
  -12.3416  -25.5076   31.5027 H   0  0  0  0  0  0  0  0  0  0  0  0
   -9.7618  -25.4810   32.3494 H   0  0  0  0  0  0  0  0  0  0  0  0
   -1.1410  -15.6144   31.6772 H   0  0  0  0  0  0  0  0  0  0  0  0
   -1.6902  -14.8508   33.3719 H   0  0  0  0  0  0  0  0  0  0  0  0
   -0.5604  -12.9771   32.8382 H   0  0  0  0  0  0  0  0  0  0  0  0
    0.1738  -13.6075   31.5478 H   0  0  0  0  0  0  0  0  0  0  0  0
    0.5719  -10.9274   29.3245 H   0  0  0  0  0  0  0  0  0  0  0  0
    0.0165   -8.6192   29.6683 H   0  0  0  0  0  0  0  0  0  0  0  0
   -1.5783   -8.2591   31.6431 H   0  0  0  0  0  0  0  0  0  0  0  0
  1  2  1  0
  2  3  1  0
  3  4  1  0
  4  5  1  0
  5  6  1  0
  6  7  1  0
  7  8  2  0
  7  9  1  0
  9 10  1  0
 10 11  1  0
 11 12  2  0
 12 13  1  0
 13 14  2  0
  3 15  1  0
 15 16  2  0
 15 17  1  0
 17 18  1  0
 18 19  1  0
 19 20  2  0
 20 21  1  0
 21 22  1  0
 22 23  2  0
 14 10  1  0
 23 19  1  0
  1 24  1  0
  1 25  1  0
  1 26  1  0
  2 27  1  0
  2 28  1  0
  4 29  1  0
  4 30  1  0
  5 31  1  0
  5 32  1  0
  6 33  1  0
  9 34  1  0
  9 35  1  0
 11 36  1  0
 12 37  1  0
 13 38  1  0
 17 39  1  0
 17 40  1  0
 18 41  1  0
 18 42  1  0
 20 43  1  0
 21 44  1  0
 22 45  1  0
M  END
>  <Energy>  (297) 
725.15455701653013

>  <compound_id>  (297) 
48740

>  <target_id>  (297) 
1

>  <reference_id>  (297) 
123

>  <inspiration_ids>  (297) 
[123, 116]

>  <energy_score>  (297) 
697.9166966478499

>  <distance_score>  (297) 
2.9070332511575026

>  <path>  (297) 
/opt/xchem-fragalysis-2/maxwin/BulkDock/SCRATCH/511021/C48740-P123/C48740-P123.minimised.mol

>  <scratch_subdir>  (297) 
/opt/xchem-fragalysis-2/maxwin/BulkDock/SCRATCH/511021/C48740-P123

>  <fragmenstein_runtime>  (297) 
27.089852809906006

>  <fragmenstein_outcome>  (297) 
too moved

>  <fragmenstein_mode>  (297) 
expansion

>  <fragmenstein_error>  (297) 


$$$$
C48740-P116
     RDKit          3D

 45 46  0  0  0  0  0  0  0  0999 V2000
   -5.4969  -17.2231   34.1444 C   0  0  0  0  0  0  0  0  0  0  0  0
   -4.9641  -18.0909   35.2702 C   0  0  0  0  0  0  0  0  0  0  0  0
   -3.5413  -18.6507   35.2311 N   0  0  0  0  0  0  0  0  0  0  0  0
   -4.2880  -19.9373   35.2158 C   0  0  0  0  0  0  0  0  0  0  0  0
   -5.0016  -20.3790   33.9347 C   0  0  0  0  0  0  0  0  0  0  0  0
   -5.6291  -21.6494   33.9344 N   0  0  0  0  0  0  0  0  0  0  0  0
   -6.9695  -22.0361   34.2657 C   0  0  0  0  0  0  0  0  0  0  0  0
   -7.8785  -21.3978   34.7037 O   0  0  0  0  0  0  0  0  0  0  0  0
   -7.1506  -23.5054   33.8519 C   0  0  0  0  0  0  0  0  0  0  0  0
   -8.4870  -24.0717   33.1246 N   0  0  0  0  0  0  0  0  0  0  0  0
   -9.5706  -23.3867   32.6648 C   0  0  0  0  0  0  0  0  0  0  0  0
  -10.5530  -24.1273   32.2463 C   0  0  0  0  0  0  0  0  0  0  0  0
  -10.0196  -25.2101   32.7948 C   0  0  0  0  0  0  0  0  0  0  0  0
   -8.7617  -25.1737   32.4438 N   0  0  0  0  0  0  0  0  0  0  0  0
   -2.7668  -17.9995   34.2007 C   0  0  0  0  0  0  0  0  0  0  0  0
   -2.6059  -18.2895   33.0487 O   0  0  0  0  0  0  0  0  0  0  0  0
   -1.9673  -16.8140   34.7451 C   0  0  0  0  0  0  0  0  0  0  0  0
   -0.5476  -16.6523   34.1844 C   0  0  0  0  0  0  0  0  0  0  0  0
   -0.3264  -15.9613   32.8775 C   0  0  0  0  0  0  0  0  0  0  0  0
    0.2996  -16.4697   31.7626 C   0  0  0  0  0  0  0  0  0  0  0  0
    0.4092  -15.4374   30.8753 N   0  0  0  0  0  0  0  0  0  0  0  0
   -0.0702  -14.3288   31.4987 C   0  0  0  0  0  0  0  0  0  0  0  0
   -0.5424  -14.6164   32.6940 N   0  0  0  0  0  0  0  0  0  0  0  0
   -5.9736  -17.7917   33.3533 H   0  0  0  0  0  0  0  0  0  0  0  0
   -6.2932  -16.5837   34.5351 H   0  0  0  0  0  0  0  0  0  0  0  0
   -4.7237  -16.6001   33.7089 H   0  0  0  0  0  0  0  0  0  0  0  0
   -5.8245  -18.6715   35.6628 H   0  0  0  0  0  0  0  0  0  0  0  0
   -4.8410  -17.4689   36.1390 H   0  0  0  0  0  0  0  0  0  0  0  0
   -3.4246  -20.5816   35.2684 H   0  0  0  0  0  0  0  0  0  0  0  0
   -4.8197  -20.1722   36.1517 H   0  0  0  0  0  0  0  0  0  0  0  0
   -4.2898  -20.4274   33.1241 H   0  0  0  0  0  0  0  0  0  0  0  0
   -5.8110  -19.7127   33.6581 H   0  0  0  0  0  0  0  0  0  0  0  0
   -5.1531  -22.4365   33.5075 H   0  0  0  0  0  0  0  0  0  0  0  0
   -7.1567  -23.9155   34.8357 H   0  0  0  0  0  0  0  0  0  0  0  0
   -6.3288  -23.8832   33.2354 H   0  0  0  0  0  0  0  0  0  0  0  0
   -9.5359  -22.3033   32.4626 H   0  0  0  0  0  0  0  0  0  0  0  0
  -11.4094  -23.6425   31.8725 H   0  0  0  0  0  0  0  0  0  0  0  0
  -10.5158  -26.1119   33.1513 H   0  0  0  0  0  0  0  0  0  0  0  0
   -1.8314  -17.0160   35.8101 H   0  0  0  0  0  0  0  0  0  0  0  0
   -2.5415  -15.8968   34.6008 H   0  0  0  0  0  0  0  0  0  0  0  0
   -0.0701  -17.6398   34.1479 H   0  0  0  0  0  0  0  0  0  0  0  0
    0.0240  -16.0764   34.9208 H   0  0  0  0  0  0  0  0  0  0  0  0
    0.6616  -17.4575   31.5388 H   0  0  0  0  0  0  0  0  0  0  0  0
    0.7903  -15.4924   29.9385 H   0  0  0  0  0  0  0  0  0  0  0  0
   -0.0656  -13.3504   31.0365 H   0  0  0  0  0  0  0  0  0  0  0  0
  1  2  1  0
  2  3  1  0
  3  4  1  0
  4  5  1  0
  5  6  1  0
  6  7  1  0
  7  8  2  0
  7  9  1  0
  9 10  1  0
 10 11  1  0
 11 12  2  0
 12 13  1  0
 13 14  2  0
  3 15  1  0
 15 16  2  0
 15 17  1  0
 17 18  1  0
 18 19  1  0
 19 20  2  0
 20 21  1  0
 21 22  1  0
 22 23  2  0
 14 10  1  0
 23 19  1  0
  1 24  1  0
  1 25  1  0
  1 26  1  0
  2 27  1  0
  2 28  1  0
  4 29  1  0
  4 30  1  0
  5 31  1  0
  5 32  1  0
  6 33  1  0
  9 34  1  0
  9 35  1  0
 11 36  1  0
 12 37  1  0
 13 38  1  0
 17 39  1  0
 17 40  1  0
 18 41  1  0
 18 42  1  0
 20 43  1  0
 21 44  1  0
 22 45  1  0
M  END
>  <Energy>  (298) 
186.44613204497881

>  <compound_id>  (298) 
48740

>  <target_id>  (298) 
1

>  <reference_id>  (298) 
116

>  <inspiration_ids>  (298) 
[123, 116]

>  <energy_score>  (298) 
159.20827167629545

>  <distance_score>  (298) 
3.9200369736388576

>  <path>  (298) 
/opt/xchem-fragalysis-2/maxwin/BulkDock/SCRATCH/511021/C48740-P116/C48740-P116.minimised.mol

>  <scratch_subdir>  (298) 
/opt/xchem-fragalysis-2/maxwin/BulkDock/SCRATCH/511021/C48740-P116

>  <fragmenstein_runtime>  (298) 
16.73534893989563

>  <fragmenstein_outcome>  (298) 
too moved

>  <fragmenstein_mode>  (298) 
expansion

>  <fragmenstein_error>  (298) 


$$$$
C17985-P123
     RDKit          3D

 45 46  0  0  0  0  0  0  0  0999 V2000
   -6.3267  -17.9141   32.3198 C   0  0  0  0  0  0  0  0  0  0  0  0
   -6.7980  -18.3196   30.5441 C   0  0  0  0  0  0  0  0  0  0  0  0
   -6.5210  -17.4193   28.9120 N   0  0  0  0  0  0  0  0  0  0  0  0
   -8.1654  -18.1962   28.4623 C   0  0  0  0  0  0  0  0  0  0  0  0
   -9.0688  -19.8055   28.1865 C   0  0  0  0  0  0  0  0  0  0  0  0
  -10.1080  -21.3105   28.7301 N   0  0  0  0  0  0  0  0  0  0  0  0
  -11.4703  -21.4147   29.1664 C   0  0  0  0  0  0  0  0  0  0  0  0
  -12.2836  -20.5721   29.3792 O   0  0  0  0  0  0  0  0  0  0  0  0
  -11.9038  -22.8848   29.2567 C   0  0  0  0  0  0  0  0  0  0  0  0
  -11.6191  -23.5105   30.5336 N   0  0  0  0  0  0  0  0  0  0  0  0
  -12.0814  -23.1502   31.7629 C   0  0  0  0  0  0  0  0  0  0  0  0
  -11.6245  -24.1092   32.6360 C   0  0  0  0  0  0  0  0  0  0  0  0
  -10.8763  -24.9945   31.8408 C   0  0  0  0  0  0  0  0  0  0  0  0
  -10.8595  -24.6289   30.5554 N   0  0  0  0  0  0  0  0  0  0  0  0
   -5.3974  -17.6397   28.5202 C   0  0  0  0  0  0  0  0  0  0  0  0
   -4.9510  -18.4903   27.7849 O   0  0  0  0  0  0  0  0  0  0  0  0
   -4.6171  -16.3629   29.3947 C   0  0  0  0  0  0  0  0  0  0  0  0
   -3.1474  -15.2218   29.5959 C   0  0  0  0  0  0  0  0  0  0  0  0
   -3.7612  -13.4460   29.8087 C   0  0  0  0  0  0  0  0  0  0  0  0
   -5.0198  -13.0699   30.0422 N   0  0  0  0  0  0  0  0  0  0  0  0
   -4.7487  -11.9194   30.6174 C   0  0  0  0  0  0  0  0  0  0  0  0
   -3.3869  -11.5702   30.4185 C   0  0  0  0  0  0  0  0  0  0  0  0
   -3.1443  -12.3092   29.3630 N   0  0  0  0  0  0  0  0  0  0  0  0
   -5.8352  -18.8444   32.6037 H   0  0  0  0  0  0  0  0  0  0  0  0
   -7.1955  -17.7419   32.9660 H   0  0  0  0  0  0  0  0  0  0  0  0
   -5.6701  -17.0414   32.4413 H   0  0  0  0  0  0  0  0  0  0  0  0
   -7.6875  -18.0048   30.9582 H   0  0  0  0  0  0  0  0  0  0  0  0
   -6.2280  -17.3972   30.7476 H   0  0  0  0  0  0  0  0  0  0  0  0
   -8.6037  -17.7144   29.1934 H   0  0  0  0  0  0  0  0  0  0  0  0
   -8.4252  -17.5813   27.5954 H   0  0  0  0  0  0  0  0  0  0  0  0
   -9.4648  -20.5124   27.3765 H   0  0  0  0  0  0  0  0  0  0  0  0
   -7.8896  -20.2830   27.9132 H   0  0  0  0  0  0  0  0  0  0  0  0
   -9.7385  -22.2445   28.5703 H   0  0  0  0  0  0  0  0  0  0  0  0
  -11.4303  -23.4707   28.4605 H   0  0  0  0  0  0  0  0  0  0  0  0
  -12.9828  -22.9658   29.1033 H   0  0  0  0  0  0  0  0  0  0  0  0
  -12.7294  -22.2979   31.9111 H   0  0  0  0  0  0  0  0  0  0  0  0
  -11.8360  -24.1750   33.6945 H   0  0  0  0  0  0  0  0  0  0  0  0
  -10.3516  -25.8930   32.1406 H   0  0  0  0  0  0  0  0  0  0  0  0
   -5.5953  -15.7447   29.3225 H   0  0  0  0  0  0  0  0  0  0  0  0
   -5.1017  -16.3005   30.3489 H   0  0  0  0  0  0  0  0  0  0  0  0
   -2.5598  -15.0993   28.6728 H   0  0  0  0  0  0  0  0  0  0  0  0
   -2.5875  -15.6035   30.4443 H   0  0  0  0  0  0  0  0  0  0  0  0
   -5.4720  -11.4352   31.2673 H   0  0  0  0  0  0  0  0  0  0  0  0
   -2.7018  -10.8209   30.8071 H   0  0  0  0  0  0  0  0  0  0  0  0
   -3.5072  -11.9269   28.5090 H   0  0  0  0  0  0  0  0  0  0  0  0
  1  2  1  0
  2  3  1  0
  3  4  1  0
  4  5  1  0
  5  6  1  0
  6  7  1  0
  7  8  2  0
  7  9  1  0
  9 10  1  0
 10 11  1  0
 11 12  2  0
 12 13  1  0
 13 14  2  0
  3 15  1  0
 15 16  2  0
 15 17  1  0
 17 18  1  0
 18 19  1  0
 19 20  2  0
 20 21  1  0
 21 22  2  0
 22 23  1  0
 14 10  1  0
 23 19  1  0
  1 24  1  0
  1 25  1  0
  1 26  1  0
  2 27  1  0
  2 28  1  0
  4 29  1  0
  4 30  1  0
  5 31  1  0
  5 32  1  0
  6 33  1  0
  9 34  1  0
  9 35  1  0
 11 36  1  0
 12 37  1  0
 13 38  1  0
 17 39  1  0
 17 40  1  0
 18 41  1  0
 18 42  1  0
 21 43  1  0
 22 44  1  0
 23 45  1  0
M  END
>  <Energy>  (299) 
684.25860576570949

>  <compound_id>  (299) 
17985

>  <target_id>  (299) 
1

>  <reference_id>  (299) 
123

>  <inspiration_ids>  (299) 
[123, 116]

>  <energy_score>  (299) 
640.0562262201666

>  <distance_score>  (299) 
3.2589146576023746

>  <path>  (299) 
/opt/xchem-fragalysis-2/maxwin/BulkDock/SCRATCH/511021/C17985-P123/C17985-P123.minimised.mol

>  <scratch_subdir>  (299) 
/opt/xchem-fragalysis-2/maxwin/BulkDock/SCRATCH/511021/C17985-P123

>  <fragmenstein_runtime>  (299) 
14.94111180305481

>  <fragmenstein_outcome>  (299) 
too moved

>  <fragmenstein_mode>  (299) 
expansion

>  <fragmenstein_error>  (299) 


$$$$
C17985-P116
     RDKit          3D

 45 46  0  0  0  0  0  0  0  0999 V2000
   -5.6226  -17.8309   33.7673 C   0  0  0  0  0  0  0  0  0  0  0  0
   -6.3415  -18.7934   32.7564 C   0  0  0  0  0  0  0  0  0  0  0  0
   -6.8182  -17.6691   31.1781 N   0  0  0  0  0  0  0  0  0  0  0  0
   -7.7365  -18.5364   31.3525 C   0  0  0  0  0  0  0  0  0  0  0  0
   -8.2530  -18.6482   29.3051 C   0  0  0  0  0  0  0  0  0  0  0  0
   -9.4828  -19.7153   28.5466 N   0  0  0  0  0  0  0  0  0  0  0  0
  -10.5873  -20.8041   29.2400 C   0  0  0  0  0  0  0  0  0  0  0  0
  -10.8050  -20.9993   30.4121 O   0  0  0  0  0  0  0  0  0  0  0  0
  -11.1681  -21.5840   27.9113 C   0  0  0  0  0  0  0  0  0  0  0  0
  -12.4387  -21.8000   28.3696 N   0  0  0  0  0  0  0  0  0  0  0  0
  -12.9920  -20.8453   29.1654 C   0  0  0  0  0  0  0  0  0  0  0  0
  -13.0824  -21.3840   30.3791 C   0  0  0  0  0  0  0  0  0  0  0  0
  -12.3624  -22.4721   30.2411 C   0  0  0  0  0  0  0  0  0  0  0  0
  -12.2153  -22.8854   28.9927 N   0  0  0  0  0  0  0  0  0  0  0  0
   -6.0336  -17.3545   29.7165 C   0  0  0  0  0  0  0  0  0  0  0  0
   -6.1102  -17.9039   28.6603 O   0  0  0  0  0  0  0  0  0  0  0  0
   -4.9494  -16.2877   29.6697 C   0  0  0  0  0  0  0  0  0  0  0  0
   -3.3998  -15.8096   28.4289 C   0  0  0  0  0  0  0  0  0  0  0  0
   -1.8930  -14.9571   28.4890 C   0  0  0  0  0  0  0  0  0  0  0  0
   -0.9281  -15.1138   29.3862 N   0  0  0  0  0  0  0  0  0  0  0  0
   -0.0454  -14.0781   29.2159 C   0  0  0  0  0  0  0  0  0  0  0  0
   -0.4709  -13.2428   28.2188 C   0  0  0  0  0  0  0  0  0  0  0  0
   -1.6106  -13.8245   27.7317 N   0  0  0  0  0  0  0  0  0  0  0  0
   -4.6655  -17.4447   33.4100 H   0  0  0  0  0  0  0  0  0  0  0  0
   -5.4367  -18.3658   34.7047 H   0  0  0  0  0  0  0  0  0  0  0  0
   -6.2725  -16.9805   33.9924 H   0  0  0  0  0  0  0  0  0  0  0  0
   -5.9210  -19.8434   32.7986 H   0  0  0  0  0  0  0  0  0  0  0  0
   -7.2560  -18.9731   33.3788 H   0  0  0  0  0  0  0  0  0  0  0  0
   -7.3506  -19.5212   31.3478 H   0  0  0  0  0  0  0  0  0  0  0  0
   -7.8812  -17.8989   32.2320 H   0  0  0  0  0  0  0  0  0  0  0  0
   -8.9104  -17.8489   29.0546 H   0  0  0  0  0  0  0  0  0  0  0  0
   -7.8981  -18.1116   28.4056 H   0  0  0  0  0  0  0  0  0  0  0  0
   -9.5913  -19.7167   27.6544 H   0  0  0  0  0  0  0  0  0  0  0  0
  -10.5713  -22.5122   27.8694 H   0  0  0  0  0  0  0  0  0  0  0  0
  -11.2758  -21.2687   26.8919 H   0  0  0  0  0  0  0  0  0  0  0  0
  -12.8867  -19.8047   29.0018 H   0  0  0  0  0  0  0  0  0  0  0  0
  -12.9439  -21.0238   31.3670 H   0  0  0  0  0  0  0  0  0  0  0  0
  -11.7924  -22.8469   31.0923 H   0  0  0  0  0  0  0  0  0  0  0  0
   -5.5997  -15.4760   30.0741 H   0  0  0  0  0  0  0  0  0  0  0  0
   -4.3932  -16.7516   30.4149 H   0  0  0  0  0  0  0  0  0  0  0  0
   -3.1820  -15.2242   29.3799 H   0  0  0  0  0  0  0  0  0  0  0  0
   -3.0479  -16.7602   27.9671 H   0  0  0  0  0  0  0  0  0  0  0  0
    0.8428  -13.9890   29.8269 H   0  0  0  0  0  0  0  0  0  0  0  0
   -0.0626  -12.3390   27.7898 H   0  0  0  0  0  0  0  0  0  0  0  0
   -2.1514  -13.4703   26.9546 H   0  0  0  0  0  0  0  0  0  0  0  0
  1  2  1  0
  2  3  1  0
  3  4  1  0
  4  5  1  0
  5  6  1  0
  6  7  1  0
  7  8  2  0
  7  9  1  0
  9 10  1  0
 10 11  1  0
 11 12  2  0
 12 13  1  0
 13 14  2  0
  3 15  1  0
 15 16  2  0
 15 17  1  0
 17 18  1  0
 18 19  1  0
 19 20  2  0
 20 21  1  0
 21 22  2  0
 22 23  1  0
 14 10  1  0
 23 19  1  0
  1 24  1  0
  1 25  1  0
  1 26  1  0
  2 27  1  0
  2 28  1  0
  4 29  1  0
  4 30  1  0
  5 31  1  0
  5 32  1  0
  6 33  1  0
  9 34  1  0
  9 35  1  0
 11 36  1  0
 12 37  1  0
 13 38  1  0
 17 39  1  0
 17 40  1  0
 18 41  1  0
 18 42  1  0
 21 43  1  0
 22 44  1  0
 23 45  1  0
M  END
>  <Energy>  (300) 
825.04157072426449

>  <compound_id>  (300) 
17985

>  <target_id>  (300) 
1

>  <reference_id>  (300) 
116

>  <inspiration_ids>  (300) 
[123, 116]

>  <energy_score>  (300) 
780.8391911787212

>  <distance_score>  (300) 
3.408758129739703

>  <path>  (300) 
/opt/xchem-fragalysis-2/maxwin/BulkDock/SCRATCH/511021/C17985-P116/C17985-P116.minimised.mol

>  <scratch_subdir>  (300) 
/opt/xchem-fragalysis-2/maxwin/BulkDock/SCRATCH/511021/C17985-P116

>  <fragmenstein_runtime>  (300) 
19.624104976654053

>  <fragmenstein_outcome>  (300) 
too moved

>  <fragmenstein_mode>  (300) 
expansion

>  <fragmenstein_error>  (300) 


$$$$
C48741-P123
     RDKit          3D

 46 47  0  0  0  0  0  0  0  0999 V2000
  -10.1763  -25.4209   30.8078 C   0  0  0  0  0  0  0  0  0  0  0  0
   -8.8238  -25.2544   31.5458 C   0  0  0  0  0  0  0  0  0  0  0  0
   -8.7782  -24.4209   32.8540 C   0  0  0  0  0  0  0  0  0  0  0  0
   -9.8876  -24.8434   33.5862 C   0  0  0  0  0  0  0  0  0  0  0  0
  -10.5945  -23.7479   33.1994 N   0  0  0  0  0  0  0  0  0  0  0  0
   -9.7485  -22.8443   32.6360 N   0  0  0  0  0  0  0  0  0  0  0  0
   -8.3581  -22.8115   33.4571 C   0  0  0  0  0  0  0  0  0  0  0  0
   -7.3099  -21.2815   32.9635 C   0  0  0  0  0  0  0  0  0  0  0  0
   -7.0899  -21.3578   31.8563 O   0  0  0  0  0  0  0  0  0  0  0  0
   -6.6804  -19.6080   33.6071 N   0  0  0  0  0  0  0  0  0  0  0  0
   -7.7511  -18.5508   33.5365 C   0  0  0  0  0  0  0  0  0  0  0  0
   -7.8803  -17.9482   34.9652 C   0  0  0  0  0  0  0  0  0  0  0  0
   -5.6407  -18.1438   32.7001 C   0  0  0  0  0  0  0  0  0  0  0  0
   -4.0162  -16.8350   32.4438 C   0  0  0  0  0  0  0  0  0  0  0  0
   -3.0339  -15.9697   30.8620 N   0  0  0  0  0  0  0  0  0  0  0  0
   -3.1204  -15.7694   29.7429 C   0  0  0  0  0  0  0  0  0  0  0  0
   -4.6288  -16.3238   29.4171 O   0  0  0  0  0  0  0  0  0  0  0  0
   -2.1028  -15.1867   28.1055 C   0  0  0  0  0  0  0  0  0  0  0  0
   -0.7729  -15.4066   28.5927 O   0  0  0  0  0  0  0  0  0  0  0  0
   -1.9165  -14.6669   26.1805 C   0  0  0  0  0  0  0  0  0  0  0  0
   -1.9388  -13.3848   25.4658 C   0  0  0  0  0  0  0  0  0  0  0  0
   -2.7335  -14.2310   26.1311 N   0  0  0  0  0  0  0  0  0  0  0  0
   -2.8705  -15.6445   25.1167 C   0  0  0  0  0  0  0  0  0  0  0  0
   -1.8041  -15.1316   24.7760 N   0  0  0  0  0  0  0  0  0  0  0  0
  -10.0215  -26.0038   29.8924 H   0  0  0  0  0  0  0  0  0  0  0  0
  -10.9111  -25.9715   31.4040 H   0  0  0  0  0  0  0  0  0  0  0  0
  -10.6149  -24.4640   30.5154 H   0  0  0  0  0  0  0  0  0  0  0  0
   -8.1600  -25.0234   30.7549 H   0  0  0  0  0  0  0  0  0  0  0  0
   -8.5465  -26.2543   31.8657 H   0  0  0  0  0  0  0  0  0  0  0  0
  -10.4353  -25.7657   33.6994 H   0  0  0  0  0  0  0  0  0  0  0  0
  -11.6012  -23.6236   33.1166 H   0  0  0  0  0  0  0  0  0  0  0  0
   -7.6032  -17.6062   33.0360 H   0  0  0  0  0  0  0  0  0  0  0  0
   -8.7158  -19.0435   33.4027 H   0  0  0  0  0  0  0  0  0  0  0  0
   -8.8694  -17.4968   35.0983 H   0  0  0  0  0  0  0  0  0  0  0  0
   -7.1671  -17.1390   35.1085 H   0  0  0  0  0  0  0  0  0  0  0  0
   -7.7008  -18.6817   35.7524 H   0  0  0  0  0  0  0  0  0  0  0  0
   -5.1457  -19.0717   32.3579 H   0  0  0  0  0  0  0  0  0  0  0  0
   -6.3221  -17.7530   31.9442 H   0  0  0  0  0  0  0  0  0  0  0  0
   -4.7175  -16.0921   32.7825 H   0  0  0  0  0  0  0  0  0  0  0  0
   -3.1087  -17.0720   32.9460 H   0  0  0  0  0  0  0  0  0  0  0  0
   -2.5564  -16.0217   31.7367 H   0  0  0  0  0  0  0  0  0  0  0  0
   -2.2612  -14.2358   28.4856 H   0  0  0  0  0  0  0  0  0  0  0  0
   -0.7612  -15.0163   29.4874 H   0  0  0  0  0  0  0  0  0  0  0  0
   -2.2461  -12.3552   25.6256 H   0  0  0  0  0  0  0  0  0  0  0  0
   -3.3843  -13.5926   26.5875 H   0  0  0  0  0  0  0  0  0  0  0  0
   -2.9496  -16.6106   25.6123 H   0  0  0  0  0  0  0  0  0  0  0  0
  1  2  1  0
  2  3  1  0
  3  4  2  0
  4  5  1  0
  5  6  1  0
  6  7  2  0
  7  8  1  0
  8  9  2  0
  8 10  1  0
 10 11  1  0
 11 12  1  0
 10 13  1  0
 13 14  1  0
 14 15  1  0
 15 16  1  0
 16 17  2  0
 16 18  1  0
 18 19  1  0
 18 20  1  0
 20 21  2  0
 21 22  1  0
 22 23  1  0
 23 24  2  0
  7  3  1  0
 24 20  1  0
  1 25  1  0
  1 26  1  0
  1 27  1  0
  2 28  1  0
  2 29  1  0
  4 30  1  0
  5 31  1  0
 11 32  1  0
 11 33  1  0
 12 34  1  0
 12 35  1  0
 12 36  1  0
 13 37  1  0
 13 38  1  0
 14 39  1  0
 14 40  1  0
 15 41  1  0
 18 42  1  0
 19 43  1  0
 21 44  1  0
 22 45  1  0
 23 46  1  0
M  END
>  <Energy>  (301) 
1584.0181783501346

>  <compound_id>  (301) 
48741

>  <target_id>  (301) 
1

>  <reference_id>  (301) 
123

>  <inspiration_ids>  (301) 
[123, 116]

>  <energy_score>  (301) 
1440.1298388672947

>  <distance_score>  (301) 
3.3690030679408505

>  <path>  (301) 
/opt/xchem-fragalysis-2/maxwin/BulkDock/SCRATCH/511021/C48741-P123/C48741-P123.minimised.mol

>  <scratch_subdir>  (301) 
/opt/xchem-fragalysis-2/maxwin/BulkDock/SCRATCH/511021/C48741-P123

>  <fragmenstein_runtime>  (301) 
23.216782808303833

>  <fragmenstein_outcome>  (301) 
too moved

>  <fragmenstein_mode>  (301) 
expansion

>  <fragmenstein_error>  (301) 


$$$$
C48741-P116
     RDKit          3D

 46 47  0  0  0  0  0  0  0  0999 V2000
  -10.2006  -23.6732   27.8503 C   0  0  0  0  0  0  0  0  0  0  0  0
  -11.0406  -22.5067   28.2796 C   0  0  0  0  0  0  0  0  0  0  0  0
  -10.9989  -21.5047   29.5095 C   0  0  0  0  0  0  0  0  0  0  0  0
  -12.2554  -21.0281   29.5892 C   0  0  0  0  0  0  0  0  0  0  0  0
  -12.5030  -21.7104   30.6826 N   0  0  0  0  0  0  0  0  0  0  0  0
  -11.4603  -22.2324   31.3716 N   0  0  0  0  0  0  0  0  0  0  0  0
  -10.3811  -21.2818   31.1940 C   0  0  0  0  0  0  0  0  0  0  0  0
   -8.3015  -21.6796   31.4179 C   0  0  0  0  0  0  0  0  0  0  0  0
   -7.6926  -22.6567   29.8636 O   0  0  0  0  0  0  0  0  0  0  0  0
   -7.4145  -21.2199   33.0597 N   0  0  0  0  0  0  0  0  0  0  0  0
   -6.6920  -19.8825   33.0608 C   0  0  0  0  0  0  0  0  0  0  0  0
   -7.2890  -18.4792   33.0016 C   0  0  0  0  0  0  0  0  0  0  0  0
   -5.9559  -21.6250   33.6526 C   0  0  0  0  0  0  0  0  0  0  0  0
   -5.5341  -21.1087   35.0986 C   0  0  0  0  0  0  0  0  0  0  0  0
   -4.3524  -20.2062   35.0342 N   0  0  0  0  0  0  0  0  0  0  0  0
   -4.2376  -18.7779   35.2299 C   0  0  0  0  0  0  0  0  0  0  0  0
   -5.0779  -17.9475   35.4154 O   0  0  0  0  0  0  0  0  0  0  0  0
   -2.6950  -18.3668   35.2911 C   0  0  0  0  0  0  0  0  0  0  0  0
   -1.8106  -19.4973   35.3681 O   0  0  0  0  0  0  0  0  0  0  0  0
   -2.1481  -17.3000   34.3517 C   0  0  0  0  0  0  0  0  0  0  0  0
   -0.9165  -17.2461   33.7119 C   0  0  0  0  0  0  0  0  0  0  0  0
   -0.7643  -15.9692   33.2460 N   0  0  0  0  0  0  0  0  0  0  0  0
   -1.8049  -15.2582   33.7458 C   0  0  0  0  0  0  0  0  0  0  0  0
   -2.6973  -16.0418   34.3011 N   0  0  0  0  0  0  0  0  0  0  0  0
   -9.1405  -23.4452   27.7650 H   0  0  0  0  0  0  0  0  0  0  0  0
  -10.3356  -24.5444   28.4653 H   0  0  0  0  0  0  0  0  0  0  0  0
  -10.5347  -24.0125   26.8607 H   0  0  0  0  0  0  0  0  0  0  0  0
  -12.0287  -22.9820   28.3245 H   0  0  0  0  0  0  0  0  0  0  0  0
  -11.1851  -21.8589   27.4108 H   0  0  0  0  0  0  0  0  0  0  0  0
  -12.9908  -20.8868   28.8423 H   0  0  0  0  0  0  0  0  0  0  0  0
  -13.4184  -22.1037   30.8345 H   0  0  0  0  0  0  0  0  0  0  0  0
   -5.6221  -19.8405   32.9336 H   0  0  0  0  0  0  0  0  0  0  0  0
   -6.7829  -19.7295   34.1396 H   0  0  0  0  0  0  0  0  0  0  0  0
   -7.4293  -18.2126   31.9701 H   0  0  0  0  0  0  0  0  0  0  0  0
   -6.5877  -17.7375   33.4030 H   0  0  0  0  0  0  0  0  0  0  0  0
   -8.1942  -18.3935   33.6141 H   0  0  0  0  0  0  0  0  0  0  0  0
   -6.1120  -22.7064   33.7886 H   0  0  0  0  0  0  0  0  0  0  0  0
   -5.0896  -21.5922   32.9805 H   0  0  0  0  0  0  0  0  0  0  0  0
   -5.2938  -21.9712   35.7182 H   0  0  0  0  0  0  0  0  0  0  0  0
   -6.3355  -20.6192   35.6646 H   0  0  0  0  0  0  0  0  0  0  0  0
   -3.4337  -20.5862   34.8202 H   0  0  0  0  0  0  0  0  0  0  0  0
   -2.6143  -17.9014   36.2865 H   0  0  0  0  0  0  0  0  0  0  0  0
   -1.8908  -19.7850   36.2949 H   0  0  0  0  0  0  0  0  0  0  0  0
   -0.1096  -17.9509   33.6318 H   0  0  0  0  0  0  0  0  0  0  0  0
    0.0421  -15.5873   32.7713 H   0  0  0  0  0  0  0  0  0  0  0  0
   -1.8621  -14.1815   33.6836 H   0  0  0  0  0  0  0  0  0  0  0  0
  1  2  1  0
  2  3  1  0
  3  4  2  0
  4  5  1  0
  5  6  1  0
  6  7  2  0
  7  8  1  0
  8  9  2  0
  8 10  1  0
 10 11  1  0
 11 12  1  0
 10 13  1  0
 13 14  1  0
 14 15  1  0
 15 16  1  0
 16 17  2  0
 16 18  1  0
 18 19  1  0
 18 20  1  0
 20 21  2  0
 21 22  1  0
 22 23  1  0
 23 24  2  0
  7  3  1  0
 24 20  1  0
  1 25  1  0
  1 26  1  0
  1 27  1  0
  2 28  1  0
  2 29  1  0
  4 30  1  0
  5 31  1  0
 11 32  1  0
 11 33  1  0
 12 34  1  0
 12 35  1  0
 12 36  1  0
 13 37  1  0
 13 38  1  0
 14 39  1  0
 14 40  1  0
 15 41  1  0
 18 42  1  0
 19 43  1  0
 21 44  1  0
 22 45  1  0
 23 46  1  0
M  END
>  <Energy>  (302) 
983.30269512286532

>  <compound_id>  (302) 
48741

>  <target_id>  (302) 
1

>  <reference_id>  (302) 
116

>  <inspiration_ids>  (302) 
[123, 116]

>  <energy_score>  (302) 
839.4143556400404

>  <distance_score>  (302) 
5.1886527410259635

>  <path>  (302) 
/opt/xchem-fragalysis-2/maxwin/BulkDock/SCRATCH/511021/C48741-P116/C48741-P116.minimised.mol

>  <scratch_subdir>  (302) 
/opt/xchem-fragalysis-2/maxwin/BulkDock/SCRATCH/511021/C48741-P116

>  <fragmenstein_runtime>  (302) 
29.147500038146973

>  <fragmenstein_outcome>  (302) 
too moved

>  <fragmenstein_mode>  (302) 
expansion

>  <fragmenstein_error>  (302) 


$$$$
C17986-P123
     RDKit          3D

 42 44  0  0  0  0  0  0  0  0999 V2000
   -2.8512  -15.9874   30.7890 C   0  0  0  0  0  0  0  0  0  0  0  0
   -4.6347  -16.1379   30.0143 C   0  0  0  0  0  0  0  0  0  0  0  0
   -5.6556  -16.8796   29.3981 C   0  0  0  0  0  0  0  0  0  0  0  0
   -5.6772  -16.5173   31.6327 N   0  0  0  0  0  0  0  0  0  0  0  0
   -5.9970  -17.9641   32.4632 C   0  0  0  0  0  0  0  0  0  0  0  0
   -5.5629  -19.1071   32.2843 O   0  0  0  0  0  0  0  0  0  0  0  0
   -7.0463  -17.8859   33.5056 C   0  0  0  0  0  0  0  0  0  0  0  0
   -7.4196  -16.7719   34.2353 C   0  0  0  0  0  0  0  0  0  0  0  0
   -8.6898  -17.0220   34.6874 C   0  0  0  0  0  0  0  0  0  0  0  0
   -9.1577  -18.1284   34.1576 N   0  0  0  0  0  0  0  0  0  0  0  0
   -8.1052  -18.9627   33.7870 N   0  0  0  0  0  0  0  0  0  0  0  0
   -8.5376  -20.5913   33.1488 C   0  0  0  0  0  0  0  0  0  0  0  0
   -8.3945  -22.4932   33.2544 C   0  0  0  0  0  0  0  0  0  0  0  0
   -9.8643  -23.2290   32.6283 C   0  0  0  0  0  0  0  0  0  0  0  0
  -10.8049  -22.0726   32.1350 C   0  0  0  0  0  0  0  0  0  0  0  0
  -10.1888  -20.5990   32.4745 C   0  0  0  0  0  0  0  0  0  0  0  0
   -3.5366  -16.1670   28.6662 C   0  0  0  0  0  0  0  0  0  0  0  0
   -3.3992  -16.9903   27.6141 N   0  0  0  0  0  0  0  0  0  0  0  0
   -2.2483  -16.8591   27.0501 C   0  0  0  0  0  0  0  0  0  0  0  0
   -1.9979  -15.5027   27.2747 C   0  0  0  0  0  0  0  0  0  0  0  0
   -2.5065  -15.1218   28.4205 N   0  0  0  0  0  0  0  0  0  0  0  0
   -2.8392  -16.1275   31.8879 H   0  0  0  0  0  0  0  0  0  0  0  0
   -1.8267  -15.6517   30.5517 H   0  0  0  0  0  0  0  0  0  0  0  0
   -3.0688  -15.0660   30.3191 H   0  0  0  0  0  0  0  0  0  0  0  0
   -5.4741  -17.6301   28.7076 H   0  0  0  0  0  0  0  0  0  0  0  0
   -6.3098  -16.1192   28.9882 H   0  0  0  0  0  0  0  0  0  0  0  0
   -6.0780  -17.6281   29.9956 H   0  0  0  0  0  0  0  0  0  0  0  0
   -6.1251  -15.7725   32.0807 H   0  0  0  0  0  0  0  0  0  0  0  0
   -6.9037  -15.8303   34.3153 H   0  0  0  0  0  0  0  0  0  0  0  0
   -9.3637  -16.3783   35.2369 H   0  0  0  0  0  0  0  0  0  0  0  0
   -8.1573  -20.7113   34.1534 H   0  0  0  0  0  0  0  0  0  0  0  0
   -8.1887  -22.9674   34.1876 H   0  0  0  0  0  0  0  0  0  0  0  0
   -7.6804  -22.9879   32.6376 H   0  0  0  0  0  0  0  0  0  0  0  0
  -10.3785  -23.8357   33.3764 H   0  0  0  0  0  0  0  0  0  0  0  0
   -9.6261  -23.9616   31.8484 H   0  0  0  0  0  0  0  0  0  0  0  0
  -11.7818  -22.1597   32.6298 H   0  0  0  0  0  0  0  0  0  0  0  0
  -11.0221  -22.1595   31.0652 H   0  0  0  0  0  0  0  0  0  0  0  0
  -10.8898  -20.0265   33.0878 H   0  0  0  0  0  0  0  0  0  0  0  0
  -10.2534  -20.2289   31.4909 H   0  0  0  0  0  0  0  0  0  0  0  0
   -1.9543  -17.6079   26.3203 H   0  0  0  0  0  0  0  0  0  0  0  0
   -1.9612  -14.7838   26.4755 H   0  0  0  0  0  0  0  0  0  0  0  0
   -2.2413  -14.3151   28.9799 H   0  0  0  0  0  0  0  0  0  0  0  0
  1  2  1  0
  2  3  1  0
  2  4  1  0
  4  5  1  0
  5  6  2  0
  5  7  1  0
  7  8  2  0
  8  9  1  0
  9 10  2  0
 10 11  1  0
 11 12  1  0
 12 13  1  0
 13 14  1  0
 14 15  1  0
 15 16  1  0
  2 17  1  0
 17 18  2  0
 18 19  1  0
 19 20  2  0
 20 21  1  0
 11  7  1  0
 16 12  1  0
 21 17  1  0
  1 22  1  0
  1 23  1  0
  1 24  1  0
  3 25  1  0
  3 26  1  0
  3 27  1  0
  4 28  1  0
  8 29  1  0
  9 30  1  0
 12 31  1  0
 13 32  1  0
 13 33  1  0
 14 34  1  0
 14 35  1  0
 15 36  1  0
 15 37  1  0
 16 38  1  0
 16 39  1  0
 19 40  1  0
 20 41  1  0
 21 42  1  0
M  END
>  <Energy>  (303) 
626.15000187280862

>  <compound_id>  (303) 
17986

>  <target_id>  (303) 
1

>  <reference_id>  (303) 
123

>  <inspiration_ids>  (303) 
[123, 116]

>  <energy_score>  (303) 
612.1257079813493

>  <distance_score>  (303) 
6.6197363769286435

>  <path>  (303) 
/opt/xchem-fragalysis-2/maxwin/BulkDock/SCRATCH/511021/C17986-P123/C17986-P123.minimised.mol

>  <scratch_subdir>  (303) 
/opt/xchem-fragalysis-2/maxwin/BulkDock/SCRATCH/511021/C17986-P123

>  <fragmenstein_runtime>  (303) 
24.48466992378235

>  <fragmenstein_outcome>  (303) 
too moved

>  <fragmenstein_mode>  (303) 
expansion

>  <fragmenstein_error>  (303) 


$$$$
C17986-P116
     RDKit          3D

 42 44  0  0  0  0  0  0  0  0999 V2000
   -3.1216  -19.1846   27.2542 C   0  0  0  0  0  0  0  0  0  0  0  0
   -4.2379  -20.0254   25.8714 C   0  0  0  0  0  0  0  0  0  0  0  0
   -5.5227  -19.5857   25.3461 C   0  0  0  0  0  0  0  0  0  0  0  0
   -5.7714  -20.8612   26.9489 N   0  0  0  0  0  0  0  0  0  0  0  0
   -5.8711  -22.3000   27.8802 C   0  0  0  0  0  0  0  0  0  0  0  0
   -4.9249  -23.0260   28.1448 O   0  0  0  0  0  0  0  0  0  0  0  0
   -7.6615  -22.9793   28.3970 C   0  0  0  0  0  0  0  0  0  0  0  0
   -8.3374  -23.2340   27.1663 C   0  0  0  0  0  0  0  0  0  0  0  0
   -9.6679  -23.9229   27.0443 C   0  0  0  0  0  0  0  0  0  0  0  0
  -10.1002  -24.2089   28.2274 N   0  0  0  0  0  0  0  0  0  0  0  0
   -8.8487  -24.4474   28.7128 N   0  0  0  0  0  0  0  0  0  0  0  0
   -8.5965  -25.8952   29.8578 C   0  0  0  0  0  0  0  0  0  0  0  0
   -9.3931  -27.5515   29.9576 C   0  0  0  0  0  0  0  0  0  0  0  0
  -10.1684  -27.5012   31.4929 C   0  0  0  0  0  0  0  0  0  0  0  0
   -9.4065  -25.7725   32.1239 C   0  0  0  0  0  0  0  0  0  0  0  0
   -8.3512  -25.5767   31.1810 C   0  0  0  0  0  0  0  0  0  0  0  0
   -2.6461  -18.6811   25.9376 C   0  0  0  0  0  0  0  0  0  0  0  0
   -1.3386  -18.5071   25.8508 N   0  0  0  0  0  0  0  0  0  0  0  0
   -1.0655  -17.3865   26.5986 C   0  0  0  0  0  0  0  0  0  0  0  0
   -2.0672  -16.5810   26.9485 C   0  0  0  0  0  0  0  0  0  0  0  0
   -2.7334  -17.0952   25.9046 N   0  0  0  0  0  0  0  0  0  0  0  0
   -3.9635  -18.8524   27.8779 H   0  0  0  0  0  0  0  0  0  0  0  0
   -2.2403  -19.8429   27.5132 H   0  0  0  0  0  0  0  0  0  0  0  0
   -3.0464  -18.1224   27.6603 H   0  0  0  0  0  0  0  0  0  0  0  0
   -5.8083  -19.1613   26.3280 H   0  0  0  0  0  0  0  0  0  0  0  0
   -5.7603  -18.9899   24.4252 H   0  0  0  0  0  0  0  0  0  0  0  0
   -6.5045  -19.5091   25.6847 H   0  0  0  0  0  0  0  0  0  0  0  0
   -6.7118  -20.3770   26.9731 H   0  0  0  0  0  0  0  0  0  0  0  0
   -7.7219  -22.9996   26.3125 H   0  0  0  0  0  0  0  0  0  0  0  0
  -10.2628  -24.1781   26.1748 H   0  0  0  0  0  0  0  0  0  0  0  0
   -7.5982  -26.4293   29.6570 H   0  0  0  0  0  0  0  0  0  0  0  0
  -10.0487  -27.8504   29.1112 H   0  0  0  0  0  0  0  0  0  0  0  0
   -8.5363  -28.2352   29.9067 H   0  0  0  0  0  0  0  0  0  0  0  0
  -10.3348  -28.4925   31.9500 H   0  0  0  0  0  0  0  0  0  0  0  0
  -11.2831  -27.5531   31.6128 H   0  0  0  0  0  0  0  0  0  0  0  0
   -9.7108  -25.5058   33.1126 H   0  0  0  0  0  0  0  0  0  0  0  0
   -9.8723  -24.7703   31.8953 H   0  0  0  0  0  0  0  0  0  0  0  0
   -7.2565  -25.4991   31.2278 H   0  0  0  0  0  0  0  0  0  0  0  0
   -8.3122  -26.5610   31.2112 H   0  0  0  0  0  0  0  0  0  0  0  0
   -0.1019  -17.0678   26.8128 H   0  0  0  0  0  0  0  0  0  0  0  0
   -2.1157  -15.6190   27.4419 H   0  0  0  0  0  0  0  0  0  0  0  0
   -3.2746  -16.5790   25.2350 H   0  0  0  0  0  0  0  0  0  0  0  0
  1  2  1  0
  2  3  1  0
  2  4  1  0
  4  5  1  0
  5  6  2  0
  5  7  1  0
  7  8  2  0
  8  9  1  0
  9 10  2  0
 10 11  1  0
 11 12  1  0
 12 13  1  0
 13 14  1  0
 14 15  1  0
 15 16  1  0
  2 17  1  0
 17 18  2  0
 18 19  1  0
 19 20  2  0
 20 21  1  0
 11  7  1  0
 16 12  1  0
 21 17  1  0
  1 22  1  0
  1 23  1  0
  1 24  1  0
  3 25  1  0
  3 26  1  0
  3 27  1  0
  4 28  1  0
  8 29  1  0
  9 30  1  0
 12 31  1  0
 13 32  1  0
 13 33  1  0
 14 34  1  0
 14 35  1  0
 15 36  1  0
 15 37  1  0
 16 38  1  0
 16 39  1  0
 19 40  1  0
 20 41  1  0
 21 42  1  0
M  END
>  <Energy>  (304) 
1251.0248185335222

>  <compound_id>  (304) 
17986

>  <target_id>  (304) 
1

>  <reference_id>  (304) 
116

>  <inspiration_ids>  (304) 
[123, 116]

>  <energy_score>  (304) 
1237.0005246420735

>  <distance_score>  (304) 
5.5310539093151005

>  <path>  (304) 
/opt/xchem-fragalysis-2/maxwin/BulkDock/SCRATCH/511021/C17986-P116/C17986-P116.minimised.mol

>  <scratch_subdir>  (304) 
/opt/xchem-fragalysis-2/maxwin/BulkDock/SCRATCH/511021/C17986-P116

>  <fragmenstein_runtime>  (304) 
18.43969750404358

>  <fragmenstein_outcome>  (304) 
too moved

>  <fragmenstein_mode>  (304) 
expansion

>  <fragmenstein_error>  (304) 


$$$$
C17987-P123
     RDKit          3D

 46 48  0  0  0  0  0  0  0  0999 V2000
   -8.0078  -23.0634   28.3255 O   0  0  0  0  0  0  0  0  0  0  0  0
   -7.5052  -22.0921   28.9387 C   0  0  0  0  0  0  0  0  0  0  0  0
   -7.1995  -20.6196   27.7083 C   0  0  0  0  0  0  0  0  0  0  0  0
   -8.2295  -18.4431   28.1905 S   0  0  0  0  0  0  0  0  0  0  0  0
   -6.2904  -17.2963   28.8286 C   0  0  0  0  0  0  0  0  0  0  0  0
   -6.4154  -15.7973   28.8904 C   0  0  0  0  0  0  0  0  0  0  0  0
   -5.9106  -15.1135   29.9201 N   0  0  0  0  0  0  0  0  0  0  0  0
   -6.3205  -13.8611   29.6421 C   0  0  0  0  0  0  0  0  0  0  0  0
   -7.1439  -13.8238   28.4636 C   0  0  0  0  0  0  0  0  0  0  0  0
   -7.6327  -15.0372   28.2717 N   0  0  0  0  0  0  0  0  0  0  0  0
   -7.1285  -21.7193   31.1434 N   0  0  0  0  0  0  0  0  0  0  0  0
   -7.7251  -22.9022   32.6268 C   0  0  0  0  0  0  0  0  0  0  0  0
   -9.1767  -23.9813   32.4127 C   0  0  0  0  0  0  0  0  0  0  0  0
  -10.6146  -23.5061   32.1914 C   0  0  0  0  0  0  0  0  0  0  0  0
  -11.3617  -23.3966   30.9884 C   0  0  0  0  0  0  0  0  0  0  0  0
  -12.5623  -22.8312   31.3426 C   0  0  0  0  0  0  0  0  0  0  0  0
  -12.5824  -22.8016   32.7026 N   0  0  0  0  0  0  0  0  0  0  0  0
  -13.5784  -22.2358   33.6016 C   0  0  0  0  0  0  0  0  0  0  0  0
  -13.0734  -20.9511   34.2740 C   0  0  0  0  0  0  0  0  0  0  0  0
  -14.2755  -20.0419   34.5305 C   0  0  0  0  0  0  0  0  0  0  0  0
  -15.4885  -20.8349   34.0931 C   0  0  0  0  0  0  0  0  0  0  0  0
  -14.9497  -21.8125   33.0591 C   0  0  0  0  0  0  0  0  0  0  0  0
  -11.4455  -23.3172   33.2255 N   0  0  0  0  0  0  0  0  0  0  0  0
   -6.4802  -20.0185   27.0941 H   0  0  0  0  0  0  0  0  0  0  0  0
   -6.1650  -21.1395   27.6719 H   0  0  0  0  0  0  0  0  0  0  0  0
   -5.9633  -17.5502   29.8249 H   0  0  0  0  0  0  0  0  0  0  0  0
   -5.4480  -17.8122   28.3511 H   0  0  0  0  0  0  0  0  0  0  0  0
   -5.6581  -13.1047   30.0601 H   0  0  0  0  0  0  0  0  0  0  0  0
   -7.2427  -13.1456   27.6387 H   0  0  0  0  0  0  0  0  0  0  0  0
   -8.2294  -15.4423   27.5523 H   0  0  0  0  0  0  0  0  0  0  0  0
   -6.6441  -20.7998   31.3425 H   0  0  0  0  0  0  0  0  0  0  0  0
   -7.1278  -23.7757   32.5530 H   0  0  0  0  0  0  0  0  0  0  0  0
   -7.9367  -22.2194   33.4429 H   0  0  0  0  0  0  0  0  0  0  0  0
   -8.9375  -24.6735   31.5926 H   0  0  0  0  0  0  0  0  0  0  0  0
   -9.1861  -24.6132   33.3083 H   0  0  0  0  0  0  0  0  0  0  0  0
  -11.0645  -23.6455   29.9805 H   0  0  0  0  0  0  0  0  0  0  0  0
  -13.4061  -22.5182   30.7512 H   0  0  0  0  0  0  0  0  0  0  0  0
  -13.7438  -23.0045   34.3660 H   0  0  0  0  0  0  0  0  0  0  0  0
  -12.5896  -21.2223   35.2069 H   0  0  0  0  0  0  0  0  0  0  0  0
  -12.3197  -20.4328   33.6743 H   0  0  0  0  0  0  0  0  0  0  0  0
  -14.3227  -19.6963   35.5626 H   0  0  0  0  0  0  0  0  0  0  0  0
  -14.2237  -19.1098   33.9688 H   0  0  0  0  0  0  0  0  0  0  0  0
  -16.2767  -20.1960   33.6836 H   0  0  0  0  0  0  0  0  0  0  0  0
  -15.9156  -21.3893   34.9351 H   0  0  0  0  0  0  0  0  0  0  0  0
  -14.8833  -21.3294   32.0806 H   0  0  0  0  0  0  0  0  0  0  0  0
  -15.6458  -22.6477   32.9907 H   0  0  0  0  0  0  0  0  0  0  0  0
  1  2  2  0
  2  3  1  0
  3  4  1  0
  4  5  1  0
  5  6  1  0
  6  7  2  0
  7  8  1  0
  8  9  2  0
  9 10  1  0
  2 11  1  0
 11 12  1  0
 12 13  1  0
 13 14  1  0
 14 15  1  0
 15 16  2  0
 16 17  1  0
 17 18  1  0
 18 19  1  0
 19 20  1  0
 20 21  1  0
 21 22  1  0
 17 23  1  0
 10  6  1  0
 23 14  2  0
 22 18  1  0
  3 24  1  0
  3 25  1  0
  5 26  1  0
  5 27  1  0
  8 28  1  0
  9 29  1  0
 10 30  1  0
 11 31  1  0
 12 32  1  0
 12 33  1  0
 13 34  1  0
 13 35  1  0
 15 36  1  0
 16 37  1  0
 18 38  1  0
 19 39  1  0
 19 40  1  0
 20 41  1  0
 20 42  1  0
 21 43  1  0
 21 44  1  0
 22 45  1  0
 22 46  1  0
M  END
>  <Energy>  (305) 
794.25612188454113

>  <compound_id>  (305) 
17987

>  <target_id>  (305) 
1

>  <reference_id>  (305) 
123

>  <inspiration_ids>  (305) 
[123, 116]

>  <energy_score>  (305) 
716.7491715787968

>  <distance_score>  (305) 
4.3740270836446875

>  <path>  (305) 
/opt/xchem-fragalysis-2/maxwin/BulkDock/SCRATCH/511021/C17987-P123/C17987-P123.minimised.mol

>  <scratch_subdir>  (305) 
/opt/xchem-fragalysis-2/maxwin/BulkDock/SCRATCH/511021/C17987-P123

>  <fragmenstein_runtime>  (305) 
19.013571977615356

>  <fragmenstein_outcome>  (305) 
too moved

>  <fragmenstein_mode>  (305) 
expansion

>  <fragmenstein_error>  (305) 


$$$$
C17987-P116
     RDKit          3D

 46 48  0  0  0  0  0  0  0  0999 V2000
   -3.3073  -22.0282   31.2324 O   0  0  0  0  0  0  0  0  0  0  0  0
   -3.5265  -21.9039   30.0314 C   0  0  0  0  0  0  0  0  0  0  0  0
   -1.9767  -20.8955   28.8896 C   0  0  0  0  0  0  0  0  0  0  0  0
   -2.2189  -19.2651   27.0911 S   0  0  0  0  0  0  0  0  0  0  0  0
   -2.3471  -17.2779   27.3744 C   0  0  0  0  0  0  0  0  0  0  0  0
   -1.5838  -15.9223   27.9711 C   0  0  0  0  0  0  0  0  0  0  0  0
   -0.7135  -15.6905   28.9564 N   0  0  0  0  0  0  0  0  0  0  0  0
   -0.4420  -14.3572   29.0859 C   0  0  0  0  0  0  0  0  0  0  0  0
   -1.1992  -13.6638   28.1984 C   0  0  0  0  0  0  0  0  0  0  0  0
   -1.9124  -14.6326   27.5327 N   0  0  0  0  0  0  0  0  0  0  0  0
   -5.2332  -22.3018   28.9375 N   0  0  0  0  0  0  0  0  0  0  0  0
   -7.2470  -22.8573   29.4758 C   0  0  0  0  0  0  0  0  0  0  0  0
   -7.7309  -21.5222   31.4684 C   0  0  0  0  0  0  0  0  0  0  0  0
   -9.3961  -22.5268   32.4176 C   0  0  0  0  0  0  0  0  0  0  0  0
   -9.8681  -24.0529   31.9211 C   0  0  0  0  0  0  0  0  0  0  0  0
  -11.1796  -23.7001   31.8495 C   0  0  0  0  0  0  0  0  0  0  0  0
  -11.2894  -24.5037   32.9947 N   0  0  0  0  0  0  0  0  0  0  0  0
  -12.8683  -24.6193   34.4042 C   0  0  0  0  0  0  0  0  0  0  0  0
  -12.3959  -23.2946   36.0336 C   0  0  0  0  0  0  0  0  0  0  0  0
  -13.6149  -22.8098   36.3443 C   0  0  0  0  0  0  0  0  0  0  0  0
  -13.8543  -24.7475   35.5827 C   0  0  0  0  0  0  0  0  0  0  0  0
  -13.6226  -25.8492   34.4447 C   0  0  0  0  0  0  0  0  0  0  0  0
   -9.6158  -23.9050   33.1845 N   0  0  0  0  0  0  0  0  0  0  0  0
   -1.3465  -20.1005   29.3274 H   0  0  0  0  0  0  0  0  0  0  0  0
   -1.1846  -21.5663   28.5502 H   0  0  0  0  0  0  0  0  0  0  0  0
   -3.3684  -17.1910   27.7325 H   0  0  0  0  0  0  0  0  0  0  0  0
   -2.3460  -17.0207   26.3106 H   0  0  0  0  0  0  0  0  0  0  0  0
    0.2805  -13.9886   29.8014 H   0  0  0  0  0  0  0  0  0  0  0  0
   -1.2764  -12.6159   27.9446 H   0  0  0  0  0  0  0  0  0  0  0  0
   -2.4312  -14.4294   26.6966 H   0  0  0  0  0  0  0  0  0  0  0  0
   -5.0906  -22.1776   27.9529 H   0  0  0  0  0  0  0  0  0  0  0  0
   -7.7371  -22.6457   28.4721 H   0  0  0  0  0  0  0  0  0  0  0  0
   -7.2418  -23.8525   29.7917 H   0  0  0  0  0  0  0  0  0  0  0  0
   -7.1093  -20.5142   31.6464 H   0  0  0  0  0  0  0  0  0  0  0  0
   -6.9952  -21.5468   32.5462 H   0  0  0  0  0  0  0  0  0  0  0  0
   -9.2394  -24.9458   31.6594 H   0  0  0  0  0  0  0  0  0  0  0  0
  -11.6836  -22.7612   31.6546 H   0  0  0  0  0  0  0  0  0  0  0  0
  -12.2671  -24.6359   35.8619 H   0  0  0  0  0  0  0  0  0  0  0  0
  -11.4661  -23.1291   36.5078 H   0  0  0  0  0  0  0  0  0  0  0  0
  -12.1247  -22.2289   35.9382 H   0  0  0  0  0  0  0  0  0  0  0  0
  -13.7687  -22.5659   37.4167 H   0  0  0  0  0  0  0  0  0  0  0  0
  -14.4012  -22.2094   35.8314 H   0  0  0  0  0  0  0  0  0  0  0  0
  -13.3828  -25.5642   36.2108 H   0  0  0  0  0  0  0  0  0  0  0  0
  -14.8665  -23.8970   35.2917 H   0  0  0  0  0  0  0  0  0  0  0  0
  -14.2937  -25.9623   33.5910 H   0  0  0  0  0  0  0  0  0  0  0  0
  -13.2318  -26.8324   34.7972 H   0  0  0  0  0  0  0  0  0  0  0  0
  1  2  2  0
  2  3  1  0
  3  4  1  0
  4  5  1  0
  5  6  1  0
  6  7  2  0
  7  8  1  0
  8  9  2  0
  9 10  1  0
  2 11  1  0
 11 12  1  0
 12 13  1  0
 13 14  1  0
 14 15  1  0
 15 16  2  0
 16 17  1  0
 17 18  1  0
 18 19  1  0
 19 20  1  0
 20 21  1  0
 21 22  1  0
 17 23  1  0
 10  6  1  0
 23 14  2  0
 22 18  1  0
  3 24  1  0
  3 25  1  0
  5 26  1  0
  5 27  1  0
  8 28  1  0
  9 29  1  0
 10 30  1  0
 11 31  1  0
 12 32  1  0
 12 33  1  0
 13 34  1  0
 13 35  1  0
 15 36  1  0
 16 37  1  0
 18 38  1  0
 19 39  1  0
 19 40  1  0
 20 41  1  0
 20 42  1  0
 21 43  1  0
 21 44  1  0
 22 45  1  0
 22 46  1  0
M  END
>  <Energy>  (306) 
2209.6423677013809

>  <compound_id>  (306) 
17987

>  <target_id>  (306) 
1

>  <reference_id>  (306) 
116

>  <inspiration_ids>  (306) 
[123, 116]

>  <energy_score>  (306) 
2132.135417395658

>  <distance_score>  (306) 
2.15802985930131

>  <path>  (306) 
/opt/xchem-fragalysis-2/maxwin/BulkDock/SCRATCH/511021/C17987-P116/C17987-P116.minimised.mol

>  <scratch_subdir>  (306) 
/opt/xchem-fragalysis-2/maxwin/BulkDock/SCRATCH/511021/C17987-P116

>  <fragmenstein_runtime>  (306) 
13.701038837432861

>  <fragmenstein_outcome>  (306) 
too moved

>  <fragmenstein_mode>  (306) 
expansion

>  <fragmenstein_error>  (306) 


$$$$
C17989-P123
     RDKit          3D

 33 35  0  0  0  0  0  0  0  0999 V2000
   -5.0365  -20.4106   25.6380 O   0  0  0  0  0  0  0  0  0  0  0  0
   -5.4829  -20.2999   26.7534 C   0  0  0  0  0  0  0  0  0  0  0  0
   -6.3907  -21.6828   27.5646 N   0  0  0  0  0  0  0  0  0  0  0  0
   -6.6397  -23.0893   27.1209 C   0  0  0  0  0  0  0  0  0  0  0  0
   -5.7857  -23.7650   26.2639 C   0  0  0  0  0  0  0  0  0  0  0  0
   -6.1551  -25.1039   26.2240 C   0  0  0  0  0  0  0  0  0  0  0  0
   -7.2479  -25.3247   26.9245 N   0  0  0  0  0  0  0  0  0  0  0  0
   -7.6688  -24.0918   27.3147 N   0  0  0  0  0  0  0  0  0  0  0  0
   -9.0672  -24.1296   27.7831 C   0  0  0  0  0  0  0  0  0  0  0  0
  -10.1108  -24.5436   26.6918 C   0  0  0  0  0  0  0  0  0  0  0  0
  -10.9696  -25.6750   27.2498 C   0  0  0  0  0  0  0  0  0  0  0  0
  -10.8333  -25.5219   28.7457 C   0  0  0  0  0  0  0  0  0  0  0  0
   -9.3577  -25.1956   28.8781 C   0  0  0  0  0  0  0  0  0  0  0  0
   -4.8949  -18.5819   27.5090 C   0  0  0  0  0  0  0  0  0  0  0  0
   -3.9367  -17.1777   27.3901 N   0  0  0  0  0  0  0  0  0  0  0  0
   -2.5093  -16.9589   26.7847 C   0  0  0  0  0  0  0  0  0  0  0  0
   -2.0878  -18.1497   26.2998 C   0  0  0  0  0  0  0  0  0  0  0  0
   -3.0312  -18.7800   27.1672 N   0  0  0  0  0  0  0  0  0  0  0  0
   -6.7372  -21.3755   28.4090 H   0  0  0  0  0  0  0  0  0  0  0  0
   -4.9497  -23.3528   25.7480 H   0  0  0  0  0  0  0  0  0  0  0  0
   -5.6730  -25.9263   25.7117 H   0  0  0  0  0  0  0  0  0  0  0  0
   -9.3111  -23.1334   28.1426 H   0  0  0  0  0  0  0  0  0  0  0  0
  -10.7915  -23.7081   26.5006 H   0  0  0  0  0  0  0  0  0  0  0  0
   -9.6614  -24.8450   25.7407 H   0  0  0  0  0  0  0  0  0  0  0  0
  -12.0094  -25.6128   26.9155 H   0  0  0  0  0  0  0  0  0  0  0  0
  -10.5681  -26.6412   26.9237 H   0  0  0  0  0  0  0  0  0  0  0  0
  -11.4494  -24.6941   29.1152 H   0  0  0  0  0  0  0  0  0  0  0  0
  -11.1106  -26.4323   29.2843 H   0  0  0  0  0  0  0  0  0  0  0  0
   -9.1215  -24.8880   29.8954 H   0  0  0  0  0  0  0  0  0  0  0  0
   -8.7975  -26.1130   28.6789 H   0  0  0  0  0  0  0  0  0  0  0  0
   -2.0737  -16.0332   27.1550 H   0  0  0  0  0  0  0  0  0  0  0  0
   -1.1394  -18.6243   26.1182 H   0  0  0  0  0  0  0  0  0  0  0  0
   -2.9878  -18.1166   27.8277 H   0  0  0  0  0  0  0  0  0  0  0  0
  1  2  2  0
  2  3  1  0
  3  4  1  0
  4  5  2  0
  5  6  1  0
  6  7  2  0
  7  8  1  0
  8  9  1  0
  9 10  1  0
 10 11  1  0
 11 12  1  0
 12 13  1  0
  2 14  1  0
 14 15  2  0
 15 16  1  0
 16 17  2  0
 17 18  1  0
  8  4  1  0
 13  9  1  0
 18 14  1  0
  3 19  1  0
  5 20  1  0
  6 21  1  0
  9 22  1  0
 10 23  1  0
 10 24  1  0
 11 25  1  0
 11 26  1  0
 12 27  1  0
 12 28  1  0
 13 29  1  0
 13 30  1  0
 16 31  1  0
 17 32  1  0
 18 33  1  0
M  END
>  <Energy>  (307) 
531.93984894578603

>  <compound_id>  (307) 
17989

>  <target_id>  (307) 
1

>  <reference_id>  (307) 
123

>  <inspiration_ids>  (307) 
[123, 116]

>  <energy_score>  (307) 
463.16616644000953

>  <distance_score>  (307) 
7.072692781647429

>  <path>  (307) 
/opt/xchem-fragalysis-2/maxwin/BulkDock/SCRATCH/511021/C17989-P123/C17989-P123.minimised.mol

>  <scratch_subdir>  (307) 
/opt/xchem-fragalysis-2/maxwin/BulkDock/SCRATCH/511021/C17989-P123

>  <fragmenstein_runtime>  (307) 
17.12507200241089

>  <fragmenstein_outcome>  (307) 
too moved

>  <fragmenstein_mode>  (307) 
expansion

>  <fragmenstein_error>  (307) 


$$$$
C17989-P116
     RDKit          3D

 33 35  0  0  0  0  0  0  0  0999 V2000
   -8.1353  -21.6484   34.9499 O   0  0  0  0  0  0  0  0  0  0  0  0
   -7.3995  -22.4566   34.4436 C   0  0  0  0  0  0  0  0  0  0  0  0
   -7.7093  -23.7032   33.6394 N   0  0  0  0  0  0  0  0  0  0  0  0
   -9.1645  -24.3095   33.0872 C   0  0  0  0  0  0  0  0  0  0  0  0
  -10.2609  -23.7764   32.5816 C   0  0  0  0  0  0  0  0  0  0  0  0
   -9.8125  -24.4277   31.5530 C   0  0  0  0  0  0  0  0  0  0  0  0
   -9.1162  -25.5744   31.6925 N   0  0  0  0  0  0  0  0  0  0  0  0
   -9.7601  -25.6882   32.8829 N   0  0  0  0  0  0  0  0  0  0  0  0
  -11.2038  -26.8569   33.1023 C   0  0  0  0  0  0  0  0  0  0  0  0
  -11.4527  -28.5018   32.3795 C   0  0  0  0  0  0  0  0  0  0  0  0
  -12.1520  -29.5221   33.2990 C   0  0  0  0  0  0  0  0  0  0  0  0
  -11.7869  -29.0973   34.6574 C   0  0  0  0  0  0  0  0  0  0  0  0
  -11.8265  -27.6084   34.5927 C   0  0  0  0  0  0  0  0  0  0  0  0
   -5.9916  -22.0719   34.5668 C   0  0  0  0  0  0  0  0  0  0  0  0
   -5.4718  -21.1693   33.7378 N   0  0  0  0  0  0  0  0  0  0  0  0
   -4.6143  -20.4051   34.4910 C   0  0  0  0  0  0  0  0  0  0  0  0
   -4.5102  -20.9086   35.7625 C   0  0  0  0  0  0  0  0  0  0  0  0
   -5.3453  -21.9948   35.7795 N   0  0  0  0  0  0  0  0  0  0  0  0
   -6.8443  -24.1034   33.2966 H   0  0  0  0  0  0  0  0  0  0  0  0
  -10.8315  -22.8951   32.3943 H   0  0  0  0  0  0  0  0  0  0  0  0
  -10.2984  -24.0575   30.6641 H   0  0  0  0  0  0  0  0  0  0  0  0
  -10.5507  -27.2449   32.3188 H   0  0  0  0  0  0  0  0  0  0  0  0
  -11.8613  -28.3433   31.3886 H   0  0  0  0  0  0  0  0  0  0  0  0
  -10.5425  -29.0251   32.1733 H   0  0  0  0  0  0  0  0  0  0  0  0
  -13.2376  -29.5341   33.2100 H   0  0  0  0  0  0  0  0  0  0  0  0
  -11.8147  -30.5506   33.1263 H   0  0  0  0  0  0  0  0  0  0  0  0
  -12.5543  -29.4097   35.3582 H   0  0  0  0  0  0  0  0  0  0  0  0
  -10.8125  -29.4768   34.9785 H   0  0  0  0  0  0  0  0  0  0  0  0
  -12.9010  -27.3678   34.6070 H   0  0  0  0  0  0  0  0  0  0  0  0
  -11.5700  -27.2920   35.5944 H   0  0  0  0  0  0  0  0  0  0  0  0
   -4.0988  -19.5513   34.0768 H   0  0  0  0  0  0  0  0  0  0  0  0
   -3.9574  -20.5904   36.6326 H   0  0  0  0  0  0  0  0  0  0  0  0
   -5.6717  -22.4988   36.5942 H   0  0  0  0  0  0  0  0  0  0  0  0
  1  2  2  0
  2  3  1  0
  3  4  1  0
  4  5  2  0
  5  6  1  0
  6  7  2  0
  7  8  1  0
  8  9  1  0
  9 10  1  0
 10 11  1  0
 11 12  1  0
 12 13  1  0
  2 14  1  0
 14 15  2  0
 15 16  1  0
 16 17  2  0
 17 18  1  0
  8  4  1  0
 13  9  1  0
 18 14  1  0
  3 19  1  0
  5 20  1  0
  6 21  1  0
  9 22  1  0
 10 23  1  0
 10 24  1  0
 11 25  1  0
 11 26  1  0
 12 27  1  0
 12 28  1  0
 13 29  1  0
 13 30  1  0
 16 31  1  0
 17 32  1  0
 18 33  1  0
M  END
>  <Energy>  (308) 
473.41620565409943

>  <compound_id>  (308) 
17989

>  <target_id>  (308) 
1

>  <reference_id>  (308) 
116

>  <inspiration_ids>  (308) 
[123, 116]

>  <energy_score>  (308) 
404.6425231483231

>  <distance_score>  (308) 
8.247094314839378

>  <path>  (308) 
/opt/xchem-fragalysis-2/maxwin/BulkDock/SCRATCH/511021/C17989-P116/C17989-P116.minimised.mol

>  <scratch_subdir>  (308) 
/opt/xchem-fragalysis-2/maxwin/BulkDock/SCRATCH/511021/C17989-P116

>  <fragmenstein_runtime>  (308) 
16.47002863883972

>  <fragmenstein_outcome>  (308) 
too moved

>  <fragmenstein_mode>  (308) 
expansion

>  <fragmenstein_error>  (308) 


$$$$
C17991-P123
     RDKit          3D

 42 44  0  0  0  0  0  0  0  0999 V2000
  -11.4951  -21.0667   29.1649 O   0  0  0  0  0  0  0  0  0  0  0  0
  -10.5763  -21.4399   28.4495 C   0  0  0  0  0  0  0  0  0  0  0  0
   -9.3096  -20.5822   27.7953 N   0  0  0  0  0  0  0  0  0  0  0  0
   -8.7591  -18.7151   28.0411 C   0  0  0  0  0  0  0  0  0  0  0  0
   -8.6530  -17.1190   27.1218 C   0  0  0  0  0  0  0  0  0  0  0  0
   -8.8664  -15.5872   26.6816 C   0  0  0  0  0  0  0  0  0  0  0  0
   -8.7916  -14.2270   27.5156 C   0  0  0  0  0  0  0  0  0  0  0  0
   -9.8608  -13.4525   27.7021 N   0  0  0  0  0  0  0  0  0  0  0  0
   -9.6366  -12.7286   28.8415 C   0  0  0  0  0  0  0  0  0  0  0  0
   -8.4035  -13.0283   29.3488 C   0  0  0  0  0  0  0  0  0  0  0  0
   -7.8123  -13.7894   28.3640 N   0  0  0  0  0  0  0  0  0  0  0  0
  -10.7370  -22.8582   28.0612 C   0  0  0  0  0  0  0  0  0  0  0  0
  -11.8396  -23.3312   27.2942 C   0  0  0  0  0  0  0  0  0  0  0  0
  -12.1236  -24.6141   27.5354 N   0  0  0  0  0  0  0  0  0  0  0  0
  -11.3013  -24.8495   28.5676 N   0  0  0  0  0  0  0  0  0  0  0  0
  -11.8187  -25.4751   29.7710 C   0  0  0  0  0  0  0  0  0  0  0  0
  -11.5062  -24.7343   31.0815 C   0  0  0  0  0  0  0  0  0  0  0  0
  -10.3223  -25.4775   31.6654 C   0  0  0  0  0  0  0  0  0  0  0  0
  -10.6060  -26.9172   31.2818 C   0  0  0  0  0  0  0  0  0  0  0  0
  -11.2584  -26.8697   29.9158 C   0  0  0  0  0  0  0  0  0  0  0  0
  -10.1939  -24.0438   28.5126 C   0  0  0  0  0  0  0  0  0  0  0  0
   -8.6839  -21.2023   27.3345 H   0  0  0  0  0  0  0  0  0  0  0  0
   -9.7012  -18.4876   28.1346 H   0  0  0  0  0  0  0  0  0  0  0  0
   -8.1297  -18.5494   28.8575 H   0  0  0  0  0  0  0  0  0  0  0  0
   -8.0811  -16.7447   27.9646 H   0  0  0  0  0  0  0  0  0  0  0  0
   -9.6808  -17.2643   26.8133 H   0  0  0  0  0  0  0  0  0  0  0  0
   -8.3328  -15.4258   25.7460 H   0  0  0  0  0  0  0  0  0  0  0  0
   -9.9341  -15.6143   26.4695 H   0  0  0  0  0  0  0  0  0  0  0  0
  -10.3903  -12.0681   29.2472 H   0  0  0  0  0  0  0  0  0  0  0  0
   -7.8664  -12.7258   30.2360 H   0  0  0  0  0  0  0  0  0  0  0  0
   -6.9135  -14.2078   28.4786 H   0  0  0  0  0  0  0  0  0  0  0  0
  -12.4843  -22.7796   26.6364 H   0  0  0  0  0  0  0  0  0  0  0  0
  -12.8903  -25.4940   29.6163 H   0  0  0  0  0  0  0  0  0  0  0  0
  -12.3434  -24.8337   31.7763 H   0  0  0  0  0  0  0  0  0  0  0  0
  -11.3188  -23.6632   30.9701 H   0  0  0  0  0  0  0  0  0  0  0  0
   -9.3813  -25.1448   31.2193 H   0  0  0  0  0  0  0  0  0  0  0  0
  -10.2462  -25.3391   32.7478 H   0  0  0  0  0  0  0  0  0  0  0  0
  -11.2885  -27.3752   32.0008 H   0  0  0  0  0  0  0  0  0  0  0  0
   -9.6939  -27.5118   31.2526 H   0  0  0  0  0  0  0  0  0  0  0  0
  -12.0434  -27.6273   29.8261 H   0  0  0  0  0  0  0  0  0  0  0  0
  -10.5136  -27.0609   29.1402 H   0  0  0  0  0  0  0  0  0  0  0  0
   -9.3531  -24.3339   29.1104 H   0  0  0  0  0  0  0  0  0  0  0  0
  1  2  2  0
  2  3  1  0
  3  4  1  0
  4  5  1  0
  5  6  1  0
  6  7  1  0
  7  8  2  0
  8  9  1  0
  9 10  2  0
 10 11  1  0
  2 12  1  0
 12 13  1  0
 13 14  2  0
 14 15  1  0
 15 16  1  0
 16 17  1  0
 17 18  1  0
 18 19  1  0
 19 20  1  0
 15 21  1  0
 11  7  1  0
 21 12  2  0
 20 16  1  0
  3 22  1  0
  4 23  1  0
  4 24  1  0
  5 25  1  0
  5 26  1  0
  6 27  1  0
  6 28  1  0
  9 29  1  0
 10 30  1  0
 11 31  1  0
 13 32  1  0
 16 33  1  0
 17 34  1  0
 17 35  1  0
 18 36  1  0
 18 37  1  0
 19 38  1  0
 19 39  1  0
 20 40  1  0
 20 41  1  0
 21 42  1  0
M  END
>  <Energy>  (309) 
300.5991045955563

>  <compound_id>  (309) 
17991

>  <target_id>  (309) 
1

>  <reference_id>  (309) 
123

>  <inspiration_ids>  (309) 
[123, 116]

>  <energy_score>  (309) 
281.16685008756303

>  <distance_score>  (309) 
6.54177818771791

>  <path>  (309) 
/opt/xchem-fragalysis-2/maxwin/BulkDock/SCRATCH/511021/C17991-P123/C17991-P123.minimised.mol

>  <scratch_subdir>  (309) 
/opt/xchem-fragalysis-2/maxwin/BulkDock/SCRATCH/511021/C17991-P123

>  <fragmenstein_runtime>  (309) 
21.765634298324585

>  <fragmenstein_outcome>  (309) 
too moved

>  <fragmenstein_mode>  (309) 
expansion

>  <fragmenstein_error>  (309) 


$$$$
C17991-P116
     RDKit          3D

 42 44  0  0  0  0  0  0  0  0999 V2000
  -12.3703  -20.6318   29.4904 O   0  0  0  0  0  0  0  0  0  0  0  0
  -11.5509  -21.4887   29.4518 C   0  0  0  0  0  0  0  0  0  0  0  0
  -10.4199  -21.5854   28.7789 N   0  0  0  0  0  0  0  0  0  0  0  0
   -9.5875  -20.4769   27.8031 C   0  0  0  0  0  0  0  0  0  0  0  0
   -8.5640  -18.6438   28.2074 C   0  0  0  0  0  0  0  0  0  0  0  0
   -6.6767  -17.8424   28.6236 C   0  0  0  0  0  0  0  0  0  0  0  0
   -5.1451  -16.6823   29.1502 C   0  0  0  0  0  0  0  0  0  0  0  0
   -4.3739  -15.9231   29.8721 N   0  0  0  0  0  0  0  0  0  0  0  0
   -2.9010  -15.3067   28.9256 C   0  0  0  0  0  0  0  0  0  0  0  0
   -2.6704  -16.2322   27.9259 C   0  0  0  0  0  0  0  0  0  0  0  0
   -3.8801  -17.0640   28.0052 N   0  0  0  0  0  0  0  0  0  0  0  0
  -11.4680  -22.6999   30.2614 C   0  0  0  0  0  0  0  0  0  0  0  0
  -11.7389  -22.4163   31.4796 C   0  0  0  0  0  0  0  0  0  0  0  0
  -10.9475  -22.9062   32.4566 N   0  0  0  0  0  0  0  0  0  0  0  0
  -10.4018  -24.0951   32.4549 N   0  0  0  0  0  0  0  0  0  0  0  0
   -9.3072  -25.1158   33.4703 C   0  0  0  0  0  0  0  0  0  0  0  0
   -7.8620  -25.0069   35.1970 C   0  0  0  0  0  0  0  0  0  0  0  0
   -7.4965  -27.1314   35.6690 C   0  0  0  0  0  0  0  0  0  0  0  0
   -9.3444  -28.0695   35.3312 C   0  0  0  0  0  0  0  0  0  0  0  0
  -10.5331  -26.7131   34.0601 C   0  0  0  0  0  0  0  0  0  0  0  0
  -10.5656  -23.9933   31.0774 C   0  0  0  0  0  0  0  0  0  0  0  0
  -10.0396  -22.4825   28.9263 H   0  0  0  0  0  0  0  0  0  0  0  0
   -8.5895  -21.0929   27.5914 H   0  0  0  0  0  0  0  0  0  0  0  0
  -10.2215  -20.7238   26.9631 H   0  0  0  0  0  0  0  0  0  0  0  0
   -8.9349  -18.0705   28.9655 H   0  0  0  0  0  0  0  0  0  0  0  0
   -8.9617  -17.9534   27.4483 H   0  0  0  0  0  0  0  0  0  0  0  0
   -7.2389  -16.9456   28.2430 H   0  0  0  0  0  0  0  0  0  0  0  0
   -5.9609  -18.3017   27.8927 H   0  0  0  0  0  0  0  0  0  0  0  0
   -2.2815  -14.5008   29.2659 H   0  0  0  0  0  0  0  0  0  0  0  0
   -1.9029  -16.4726   27.2098 H   0  0  0  0  0  0  0  0  0  0  0  0
   -4.0026  -17.8908   27.4490 H   0  0  0  0  0  0  0  0  0  0  0  0
  -12.4064  -21.5486   31.5304 H   0  0  0  0  0  0  0  0  0  0  0  0
   -8.7912  -25.3827   32.5263 H   0  0  0  0  0  0  0  0  0  0  0  0
   -6.8303  -24.8637   35.7599 H   0  0  0  0  0  0  0  0  0  0  0  0
   -7.3271  -24.0470   34.6470 H   0  0  0  0  0  0  0  0  0  0  0  0
   -7.3722  -27.2141   36.7418 H   0  0  0  0  0  0  0  0  0  0  0  0
   -6.8131  -27.7003   35.0204 H   0  0  0  0  0  0  0  0  0  0  0  0
  -10.0447  -28.2391   36.1442 H   0  0  0  0  0  0  0  0  0  0  0  0
   -9.1698  -29.1088   34.9773 H   0  0  0  0  0  0  0  0  0  0  0  0
  -10.9350  -27.0076   33.0407 H   0  0  0  0  0  0  0  0  0  0  0  0
  -11.5037  -27.1321   34.4881 H   0  0  0  0  0  0  0  0  0  0  0  0
   -9.5585  -24.3755   30.9273 H   0  0  0  0  0  0  0  0  0  0  0  0
  1  2  2  0
  2  3  1  0
  3  4  1  0
  4  5  1  0
  5  6  1  0
  6  7  1  0
  7  8  2  0
  8  9  1  0
  9 10  2  0
 10 11  1  0
  2 12  1  0
 12 13  1  0
 13 14  2  0
 14 15  1  0
 15 16  1  0
 16 17  1  0
 17 18  1  0
 18 19  1  0
 19 20  1  0
 15 21  1  0
 11  7  1  0
 21 12  2  0
 20 16  1  0
  3 22  1  0
  4 23  1  0
  4 24  1  0
  5 25  1  0
  5 26  1  0
  6 27  1  0
  6 28  1  0
  9 29  1  0
 10 30  1  0
 11 31  1  0
 13 32  1  0
 16 33  1  0
 17 34  1  0
 17 35  1  0
 18 36  1  0
 18 37  1  0
 19 38  1  0
 19 39  1  0
 20 40  1  0
 20 41  1  0
 21 42  1  0
M  END
>  <Energy>  (310) 
1416.8432690499421

>  <compound_id>  (310) 
17991

>  <target_id>  (310) 
1

>  <reference_id>  (310) 
116

>  <inspiration_ids>  (310) 
[123, 116]

>  <energy_score>  (310) 
1397.4110145419531

>  <distance_score>  (310) 
3.6731575067841558

>  <path>  (310) 
/opt/xchem-fragalysis-2/maxwin/BulkDock/SCRATCH/511021/C17991-P116/C17991-P116.minimised.mol

>  <scratch_subdir>  (310) 
/opt/xchem-fragalysis-2/maxwin/BulkDock/SCRATCH/511021/C17991-P116

>  <fragmenstein_runtime>  (310) 
18.297913789749146

>  <fragmenstein_outcome>  (310) 
too moved

>  <fragmenstein_mode>  (310) 
expansion

>  <fragmenstein_error>  (310) 


$$$$
C48743-P123
     RDKit          3D

 43 45  0  0  0  0  0  0  0  0999 V2000
  -10.3201  -16.7907   27.1504 C   0  0  0  0  0  0  0  0  0  0  0  0
   -9.2417  -18.1930   27.1132 N   0  0  0  0  0  0  0  0  0  0  0  0
   -8.3008  -16.8399   27.4529 C   0  0  0  0  0  0  0  0  0  0  0  0
   -8.4393  -15.4790   26.2865 C   0  0  0  0  0  0  0  0  0  0  0  0
   -8.9183  -15.3223   24.9921 C   0  0  0  0  0  0  0  0  0  0  0  0
   -8.6525  -14.0383   24.6123 N   0  0  0  0  0  0  0  0  0  0  0  0
   -8.1981  -13.3903   25.7080 C   0  0  0  0  0  0  0  0  0  0  0  0
   -8.1791  -14.1818   26.7518 N   0  0  0  0  0  0  0  0  0  0  0  0
   -9.2282  -19.8600   28.1537 C   0  0  0  0  0  0  0  0  0  0  0  0
  -10.0639  -20.0620   29.1979 O   0  0  0  0  0  0  0  0  0  0  0  0
   -8.2861  -21.6307   27.7785 C   0  0  0  0  0  0  0  0  0  0  0  0
   -7.1552  -21.8964   27.5266 O   0  0  0  0  0  0  0  0  0  0  0  0
   -9.5877  -22.5839   28.0480 N   0  0  0  0  0  0  0  0  0  0  0  0
   -9.7361  -23.9367   27.9606 C   0  0  0  0  0  0  0  0  0  0  0  0
  -11.0835  -24.3352   27.6399 C   0  0  0  0  0  0  0  0  0  0  0  0
  -11.6965  -24.8355   28.7190 N   0  0  0  0  0  0  0  0  0  0  0  0
  -10.6730  -24.8645   29.5954 N   0  0  0  0  0  0  0  0  0  0  0  0
  -10.8125  -24.9179   31.0349 C   0  0  0  0  0  0  0  0  0  0  0  0
   -9.6793  -25.6786   31.6919 C   0  0  0  0  0  0  0  0  0  0  0  0
   -9.9214  -27.0591   31.0784 C   0  0  0  0  0  0  0  0  0  0  0  0
  -11.4133  -27.2338   31.1556 C   0  0  0  0  0  0  0  0  0  0  0  0
  -11.9374  -25.8269   31.3854 C   0  0  0  0  0  0  0  0  0  0  0  0
   -9.4767  -24.8284   28.9543 C   0  0  0  0  0  0  0  0  0  0  0  0
  -10.2761  -15.7026   27.0248 H   0  0  0  0  0  0  0  0  0  0  0  0
  -11.2712  -17.0538   27.6326 H   0  0  0  0  0  0  0  0  0  0  0  0
  -10.6407  -16.8858   26.0940 H   0  0  0  0  0  0  0  0  0  0  0  0
   -8.2734  -16.2546   28.3215 H   0  0  0  0  0  0  0  0  0  0  0  0
   -7.3588  -17.1475   27.8558 H   0  0  0  0  0  0  0  0  0  0  0  0
   -9.4107  -15.9698   24.2871 H   0  0  0  0  0  0  0  0  0  0  0  0
   -8.8313  -13.6338   23.7031 H   0  0  0  0  0  0  0  0  0  0  0  0
   -7.9162  -12.3535   25.6786 H   0  0  0  0  0  0  0  0  0  0  0  0
  -10.4161  -22.0028   28.2300 H   0  0  0  0  0  0  0  0  0  0  0  0
  -11.6976  -24.0067   26.8102 H   0  0  0  0  0  0  0  0  0  0  0  0
  -10.9414  -23.8983   31.4078 H   0  0  0  0  0  0  0  0  0  0  0  0
   -9.8294  -25.6521   32.7766 H   0  0  0  0  0  0  0  0  0  0  0  0
   -8.6814  -25.2884   31.5108 H   0  0  0  0  0  0  0  0  0  0  0  0
   -9.6493  -27.0854   30.0224 H   0  0  0  0  0  0  0  0  0  0  0  0
   -9.3646  -27.8787   31.5080 H   0  0  0  0  0  0  0  0  0  0  0  0
  -11.6503  -27.9094   31.9660 H   0  0  0  0  0  0  0  0  0  0  0  0
  -11.8246  -27.6553   30.2332 H   0  0  0  0  0  0  0  0  0  0  0  0
  -12.1952  -25.6452   32.4270 H   0  0  0  0  0  0  0  0  0  0  0  0
  -12.7666  -25.6147   30.7379 H   0  0  0  0  0  0  0  0  0  0  0  0
   -8.5857  -25.0839   29.4818 H   0  0  0  0  0  0  0  0  0  0  0  0
  1  2  1  0
  2  3  1  0
  3  4  1  0
  4  5  2  0
  5  6  1  0
  6  7  1  0
  7  8  2  0
  2  9  1  0
  9 10  2  0
  9 11  1  0
 11 12  2  0
 11 13  1  0
 13 14  1  0
 14 15  1  0
 15 16  2  0
 16 17  1  0
 17 18  1  0
 18 19  1  0
 19 20  1  0
 20 21  1  0
 21 22  1  0
 17 23  1  0
  8  4  1  0
 23 14  2  0
 22 18  1  0
  1 24  1  0
  1 25  1  0
  1 26  1  0
  3 27  1  0
  3 28  1  0
  5 29  1  0
  6 30  1  0
  7 31  1  0
 13 32  1  0
 15 33  1  0
 18 34  1  0
 19 35  1  0
 19 36  1  0
 20 37  1  0
 20 38  1  0
 21 39  1  0
 21 40  1  0
 22 41  1  0
 22 42  1  0
 23 43  1  0
M  END
>  <Energy>  (311) 
546.80667466974489

>  <compound_id>  (311) 
48743

>  <target_id>  (311) 
1

>  <reference_id>  (311) 
123

>  <inspiration_ids>  (311) 
[123, 116]

>  <energy_score>  (311) 
438.05262194408544

>  <distance_score>  (311) 
6.512069831172795

>  <path>  (311) 
/opt/xchem-fragalysis-2/maxwin/BulkDock/SCRATCH/511021/C48743-P123/C48743-P123.minimised.mol

>  <scratch_subdir>  (311) 
/opt/xchem-fragalysis-2/maxwin/BulkDock/SCRATCH/511021/C48743-P123

>  <fragmenstein_runtime>  (311) 
18.466824531555176

>  <fragmenstein_outcome>  (311) 
too moved

>  <fragmenstein_mode>  (311) 
expansion

>  <fragmenstein_error>  (311) 


$$$$
C48743-P116
     RDKit          3D

 43 45  0  0  0  0  0  0  0  0999 V2000
   -8.2475  -21.2335   27.3236 C   0  0  0  0  0  0  0  0  0  0  0  0
   -9.9502  -20.9996   28.0302 N   0  0  0  0  0  0  0  0  0  0  0  0
   -9.2640  -19.0254   27.9312 C   0  0  0  0  0  0  0  0  0  0  0  0
   -9.4532  -17.3323   27.0011 C   0  0  0  0  0  0  0  0  0  0  0  0
  -10.3634  -16.6559   26.1451 C   0  0  0  0  0  0  0  0  0  0  0  0
   -9.9480  -15.3734   25.9126 N   0  0  0  0  0  0  0  0  0  0  0  0
   -8.9046  -15.1795   26.7192 C   0  0  0  0  0  0  0  0  0  0  0  0
   -8.5583  -16.3105   27.3359 N   0  0  0  0  0  0  0  0  0  0  0  0
  -11.2998  -21.2843   27.4519 C   0  0  0  0  0  0  0  0  0  0  0  0
  -11.6439  -21.6310   26.3639 O   0  0  0  0  0  0  0  0  0  0  0  0
  -12.1644  -21.0709   28.8546 C   0  0  0  0  0  0  0  0  0  0  0  0
  -13.1950  -20.5786   29.0270 O   0  0  0  0  0  0  0  0  0  0  0  0
  -11.2435  -21.5698   29.7527 N   0  0  0  0  0  0  0  0  0  0  0  0
  -11.3014  -21.7153   31.0825 C   0  0  0  0  0  0  0  0  0  0  0  0
  -11.9815  -22.7600   31.1482 C   0  0  0  0  0  0  0  0  0  0  0  0
  -11.4174  -23.8501   31.6883 N   0  0  0  0  0  0  0  0  0  0  0  0
  -10.3629  -23.8149   32.2872 N   0  0  0  0  0  0  0  0  0  0  0  0
   -9.6468  -25.1397   32.4721 C   0  0  0  0  0  0  0  0  0  0  0  0
   -8.7580  -25.8890   31.1103 C   0  0  0  0  0  0  0  0  0  0  0  0
   -9.3485  -27.4015   30.5635 C   0  0  0  0  0  0  0  0  0  0  0  0
  -10.6652  -27.9100   31.7377 C   0  0  0  0  0  0  0  0  0  0  0  0
  -10.7799  -26.6121   33.0022 C   0  0  0  0  0  0  0  0  0  0  0  0
  -10.4725  -22.3993   32.3119 C   0  0  0  0  0  0  0  0  0  0  0  0
   -7.8296  -21.8809   28.0907 H   0  0  0  0  0  0  0  0  0  0  0  0
   -7.9514  -22.2113   26.8370 H   0  0  0  0  0  0  0  0  0  0  0  0
   -7.5072  -20.5165   27.1858 H   0  0  0  0  0  0  0  0  0  0  0  0
   -8.4782  -18.7529   28.6102 H   0  0  0  0  0  0  0  0  0  0  0  0
  -10.0280  -18.5141   28.2823 H   0  0  0  0  0  0  0  0  0  0  0  0
  -11.2108  -16.9177   25.5584 H   0  0  0  0  0  0  0  0  0  0  0  0
  -10.3974  -14.6872   25.3221 H   0  0  0  0  0  0  0  0  0  0  0  0
   -8.4524  -14.2047   26.8563 H   0  0  0  0  0  0  0  0  0  0  0  0
  -10.4978  -21.9991   29.2460 H   0  0  0  0  0  0  0  0  0  0  0  0
  -12.8617  -22.8263   30.4810 H   0  0  0  0  0  0  0  0  0  0  0  0
   -8.8476  -24.8088   33.0863 H   0  0  0  0  0  0  0  0  0  0  0  0
   -7.6934  -25.8495   31.1575 H   0  0  0  0  0  0  0  0  0  0  0  0
   -8.6564  -25.1970   30.2865 H   0  0  0  0  0  0  0  0  0  0  0  0
   -9.7502  -27.5495   29.5544 H   0  0  0  0  0  0  0  0  0  0  0  0
   -8.5362  -28.0766   30.2590 H   0  0  0  0  0  0  0  0  0  0  0  0
  -10.6072  -28.9059   32.1875 H   0  0  0  0  0  0  0  0  0  0  0  0
  -11.6210  -28.0444   31.2380 H   0  0  0  0  0  0  0  0  0  0  0  0
  -11.0082  -26.9529   34.0056 H   0  0  0  0  0  0  0  0  0  0  0  0
  -11.7747  -26.4007   32.8407 H   0  0  0  0  0  0  0  0  0  0  0  0
   -9.5558  -21.8694   32.4558 H   0  0  0  0  0  0  0  0  0  0  0  0
  1  2  1  0
  2  3  1  0
  3  4  1  0
  4  5  2  0
  5  6  1  0
  6  7  1  0
  7  8  2  0
  2  9  1  0
  9 10  2  0
  9 11  1  0
 11 12  2  0
 11 13  1  0
 13 14  1  0
 14 15  1  0
 15 16  2  0
 16 17  1  0
 17 18  1  0
 18 19  1  0
 19 20  1  0
 20 21  1  0
 21 22  1  0
 17 23  1  0
  8  4  1  0
 23 14  2  0
 22 18  1  0
  1 24  1  0
  1 25  1  0
  1 26  1  0
  3 27  1  0
  3 28  1  0
  5 29  1  0
  6 30  1  0
  7 31  1  0
 13 32  1  0
 15 33  1  0
 18 34  1  0
 19 35  1  0
 19 36  1  0
 20 37  1  0
 20 38  1  0
 21 39  1  0
 21 40  1  0
 22 41  1  0
 22 42  1  0
 23 43  1  0
M  END
>  <Energy>  (312) 
788.20634180573529

>  <compound_id>  (312) 
48743

>  <target_id>  (312) 
1

>  <reference_id>  (312) 
116

>  <inspiration_ids>  (312) 
[123, 116]

>  <energy_score>  (312) 
679.4522890800765

>  <distance_score>  (312) 
6.455412972256073

>  <path>  (312) 
/opt/xchem-fragalysis-2/maxwin/BulkDock/SCRATCH/511021/C48743-P116/C48743-P116.minimised.mol

>  <scratch_subdir>  (312) 
/opt/xchem-fragalysis-2/maxwin/BulkDock/SCRATCH/511021/C48743-P116

>  <fragmenstein_runtime>  (312) 
19.132978439331055

>  <fragmenstein_outcome>  (312) 
too moved

>  <fragmenstein_mode>  (312) 
expansion

>  <fragmenstein_error>  (312) 


$$$$
C48744-P123
     RDKit          3D

 50 53  0  0  0  0  0  0  0  0999 V2000
   -7.8257  -17.7367   35.1652 C   0  0  0  0  0  0  0  0  0  0  0  0
   -8.9223  -17.3330   35.8841 C   0  0  0  0  0  0  0  0  0  0  0  0
   -9.7501  -16.7405   34.9873 N   0  0  0  0  0  0  0  0  0  0  0  0
  -11.0898  -16.2156   35.2426 C   0  0  0  0  0  0  0  0  0  0  0  0
  -11.2095  -15.3441   36.5149 C   0  0  0  0  0  0  0  0  0  0  0  0
  -12.4133  -15.8722   37.2869 C   0  0  0  0  0  0  0  0  0  0  0  0
  -12.4752  -17.3375   36.9093 C   0  0  0  0  0  0  0  0  0  0  0  0
  -12.1542  -17.3161   35.4236 C   0  0  0  0  0  0  0  0  0  0  0  0
   -9.1172  -16.5032   33.8173 N   0  0  0  0  0  0  0  0  0  0  0  0
   -7.8784  -16.9804   33.9589 C   0  0  0  0  0  0  0  0  0  0  0  0
   -6.6395  -16.3751   33.2691 C   0  0  0  0  0  0  0  0  0  0  0  0
   -5.7057  -16.5854   31.8599 C   0  0  0  0  0  0  0  0  0  0  0  0
   -5.2402  -15.8968   30.1557 N   0  0  0  0  0  0  0  0  0  0  0  0
   -3.4999  -14.9482   29.9711 C   0  0  0  0  0  0  0  0  0  0  0  0
   -3.6904  -12.9447   29.8810 C   0  0  0  0  0  0  0  0  0  0  0  0
   -4.1790  -11.9024   30.6622 N   0  0  0  0  0  0  0  0  0  0  0  0
   -2.9163  -10.7924   30.9963 C   0  0  0  0  0  0  0  0  0  0  0  0
   -1.9796  -11.0729   30.0764 C   0  0  0  0  0  0  0  0  0  0  0  0
   -2.8553  -12.0116   29.2703 N   0  0  0  0  0  0  0  0  0  0  0  0
   -0.7781  -10.1260   29.6974 C   0  0  0  0  0  0  0  0  0  0  0  0
   -0.7943   -8.6909   30.4609 C   0  0  0  0  0  0  0  0  0  0  0  0
   -1.7736   -8.4865   31.6662 C   0  0  0  0  0  0  0  0  0  0  0  0
   -2.7813   -9.6146   32.0145 C   0  0  0  0  0  0  0  0  0  0  0  0
   -6.9838  -18.2681   35.5712 H   0  0  0  0  0  0  0  0  0  0  0  0
   -9.1805  -17.4349   36.9230 H   0  0  0  0  0  0  0  0  0  0  0  0
  -11.3472  -15.5914   34.3780 H   0  0  0  0  0  0  0  0  0  0  0  0
  -11.3655  -14.2907   36.2596 H   0  0  0  0  0  0  0  0  0  0  0  0
  -10.3169  -15.3948   37.1466 H   0  0  0  0  0  0  0  0  0  0  0  0
  -12.3118  -15.7222   38.3656 H   0  0  0  0  0  0  0  0  0  0  0  0
  -13.3242  -15.3580   36.9576 H   0  0  0  0  0  0  0  0  0  0  0  0
  -11.7204  -17.9059   37.4621 H   0  0  0  0  0  0  0  0  0  0  0  0
  -13.4542  -17.7796   37.1152 H   0  0  0  0  0  0  0  0  0  0  0  0
  -13.0594  -17.0305   34.8719 H   0  0  0  0  0  0  0  0  0  0  0  0
  -11.8533  -18.3009   35.0618 H   0  0  0  0  0  0  0  0  0  0  0  0
   -6.0989  -17.1975   33.6742 H   0  0  0  0  0  0  0  0  0  0  0  0
   -6.3234  -15.5714   33.9307 H   0  0  0  0  0  0  0  0  0  0  0  0
   -6.2628  -17.4723   31.5733 H   0  0  0  0  0  0  0  0  0  0  0  0
   -4.7606  -16.8135   32.3536 H   0  0  0  0  0  0  0  0  0  0  0  0
   -5.8388  -15.0519   30.1582 H   0  0  0  0  0  0  0  0  0  0  0  0
   -2.8001  -15.5490   30.5952 H   0  0  0  0  0  0  0  0  0  0  0  0
   -3.0024  -15.2140   29.0191 H   0  0  0  0  0  0  0  0  0  0  0  0
   -3.3733  -11.5824   28.5377 H   0  0  0  0  0  0  0  0  0  0  0  0
    0.1833  -10.6168   29.8568 H   0  0  0  0  0  0  0  0  0  0  0  0
   -0.7574   -9.9310   28.6203 H   0  0  0  0  0  0  0  0  0  0  0  0
   -0.9514   -7.8999   29.7085 H   0  0  0  0  0  0  0  0  0  0  0  0
    0.1712   -8.3947   30.8525 H   0  0  0  0  0  0  0  0  0  0  0  0
   -2.3360   -7.5576   31.4950 H   0  0  0  0  0  0  0  0  0  0  0  0
   -1.1829   -8.2598   32.5651 H   0  0  0  0  0  0  0  0  0  0  0  0
   -3.7596   -9.1779   32.2440 H   0  0  0  0  0  0  0  0  0  0  0  0
   -2.3673   -9.9815   32.9574 H   0  0  0  0  0  0  0  0  0  0  0  0
  1  2  2  0
  2  3  1  0
  3  4  1  0
  4  5  1  0
  5  6  1  0
  6  7  1  0
  7  8  1  0
  3  9  1  0
  9 10  2  0
 10 11  1  0
 11 12  1  0
 12 13  1  0
 13 14  1  0
 14 15  1  0
 15 16  2  0
 16 17  1  0
 17 18  2  0
 18 19  1  0
 18 20  1  0
 20 21  1  0
 21 22  1  0
 22 23  1  0
 10  1  1  0
 19 15  1  0
  8  4  1  0
 23 17  1  0
  1 24  1  0
  2 25  1  0
  4 26  1  0
  5 27  1  0
  5 28  1  0
  6 29  1  0
  6 30  1  0
  7 31  1  0
  7 32  1  0
  8 33  1  0
  8 34  1  0
 11 35  1  0
 11 36  1  0
 12 37  1  0
 12 38  1  0
 13 39  1  0
 14 40  1  0
 14 41  1  0
 19 42  1  0
 20 43  1  0
 20 44  1  0
 21 45  1  0
 21 46  1  0
 22 47  1  0
 22 48  1  0
 23 49  1  0
 23 50  1  0
M  END
>  <Energy>  (313) 
439.15071534944133

>  <compound_id>  (313) 
48744

>  <target_id>  (313) 
1

>  <reference_id>  (313) 
123

>  <inspiration_ids>  (313) 
[123, 116]

>  <energy_score>  (313) 
338.8869987886301

>  <distance_score>  (313) 
6.519850104275659

>  <path>  (313) 
/opt/xchem-fragalysis-2/maxwin/BulkDock/SCRATCH/511021/C48744-P123/C48744-P123.minimised.mol

>  <scratch_subdir>  (313) 
/opt/xchem-fragalysis-2/maxwin/BulkDock/SCRATCH/511021/C48744-P123

>  <fragmenstein_runtime>  (313) 
27.533228158950806

>  <fragmenstein_outcome>  (313) 
too moved

>  <fragmenstein_mode>  (313) 
expansion

>  <fragmenstein_error>  (313) 


$$$$
C48744-P116
     RDKit          3D

 50 53  0  0  0  0  0  0  0  0999 V2000
   -9.5148  -23.2876   32.6754 C   0  0  0  0  0  0  0  0  0  0  0  0
  -10.4975  -24.1501   32.5299 C   0  0  0  0  0  0  0  0  0  0  0  0
   -9.8217  -25.2019   33.0194 N   0  0  0  0  0  0  0  0  0  0  0  0
  -10.9026  -26.7151   33.2630 C   0  0  0  0  0  0  0  0  0  0  0  0
  -11.7990  -27.5605   34.6505 C   0  0  0  0  0  0  0  0  0  0  0  0
  -11.6706  -29.0450   34.5486 C   0  0  0  0  0  0  0  0  0  0  0  0
  -11.6476  -29.3496   33.0855 C   0  0  0  0  0  0  0  0  0  0  0  0
  -11.1514  -28.1247   32.2029 C   0  0  0  0  0  0  0  0  0  0  0  0
   -8.1886  -24.3642   33.2839 N   0  0  0  0  0  0  0  0  0  0  0  0
   -8.1413  -22.7573   33.8564 C   0  0  0  0  0  0  0  0  0  0  0  0
   -7.1079  -20.9839   33.5043 C   0  0  0  0  0  0  0  0  0  0  0  0
   -6.9873  -18.9495   32.9181 C   0  0  0  0  0  0  0  0  0  0  0  0
   -6.2852  -17.1528   32.3176 N   0  0  0  0  0  0  0  0  0  0  0  0
   -5.5152  -16.3033   30.5720 C   0  0  0  0  0  0  0  0  0  0  0  0
   -3.6546  -15.4422   30.0481 C   0  0  0  0  0  0  0  0  0  0  0  0
   -2.2924  -15.6471   30.8994 N   0  0  0  0  0  0  0  0  0  0  0  0
   -1.0654  -15.1600   30.2455 C   0  0  0  0  0  0  0  0  0  0  0  0
   -1.4535  -14.5790   29.0727 C   0  0  0  0  0  0  0  0  0  0  0  0
   -2.6638  -15.1822   28.7425 N   0  0  0  0  0  0  0  0  0  0  0  0
   -0.7669  -13.4229   28.4337 C   0  0  0  0  0  0  0  0  0  0  0  0
    0.1846  -12.7720   29.4667 C   0  0  0  0  0  0  0  0  0  0  0  0
    1.0368  -13.8311   30.1997 C   0  0  0  0  0  0  0  0  0  0  0  0
    0.1762  -14.8351   30.9949 C   0  0  0  0  0  0  0  0  0  0  0  0
   -9.2167  -23.9248   31.8348 H   0  0  0  0  0  0  0  0  0  0  0  0
  -11.3048  -24.0360   31.8773 H   0  0  0  0  0  0  0  0  0  0  0  0
  -11.7105  -26.2456   32.8775 H   0  0  0  0  0  0  0  0  0  0  0  0
  -12.8692  -27.3392   34.5612 H   0  0  0  0  0  0  0  0  0  0  0  0
  -11.6178  -27.2945   35.6887 H   0  0  0  0  0  0  0  0  0  0  0  0
  -12.5427  -29.5078   35.0107 H   0  0  0  0  0  0  0  0  0  0  0  0
  -10.7709  -29.4080   35.0567 H   0  0  0  0  0  0  0  0  0  0  0  0
  -11.0678  -30.2577   32.9357 H   0  0  0  0  0  0  0  0  0  0  0  0
  -12.6915  -29.5872   32.8858 H   0  0  0  0  0  0  0  0  0  0  0  0
  -11.8739  -27.9966   31.4232 H   0  0  0  0  0  0  0  0  0  0  0  0
  -10.3593  -28.3168   31.5153 H   0  0  0  0  0  0  0  0  0  0  0  0
   -7.0871  -20.7605   34.5885 H   0  0  0  0  0  0  0  0  0  0  0  0
   -6.1013  -21.3700   33.3043 H   0  0  0  0  0  0  0  0  0  0  0  0
   -7.5421  -18.8903   32.0122 H   0  0  0  0  0  0  0  0  0  0  0  0
   -7.5758  -18.5177   33.7390 H   0  0  0  0  0  0  0  0  0  0  0  0
   -5.5049  -17.0142   32.9796 H   0  0  0  0  0  0  0  0  0  0  0  0
   -5.8321  -16.8774   29.7141 H   0  0  0  0  0  0  0  0  0  0  0  0
   -6.0914  -15.3623   30.5405 H   0  0  0  0  0  0  0  0  0  0  0  0
   -2.7276  -15.8401   27.9894 H   0  0  0  0  0  0  0  0  0  0  0  0
   -1.4904  -12.6815   28.0798 H   0  0  0  0  0  0  0  0  0  0  0  0
   -0.1548  -13.7221   27.5892 H   0  0  0  0  0  0  0  0  0  0  0  0
    0.8390  -12.0559   28.9564 H   0  0  0  0  0  0  0  0  0  0  0  0
   -0.3983  -12.2053   30.2040 H   0  0  0  0  0  0  0  0  0  0  0  0
    1.7482  -13.3425   30.8741 H   0  0  0  0  0  0  0  0  0  0  0  0
    1.6286  -14.3767   29.4541 H   0  0  0  0  0  0  0  0  0  0  0  0
    0.7498  -15.7433   31.2046 H   0  0  0  0  0  0  0  0  0  0  0  0
   -0.0979  -14.3894   31.9580 H   0  0  0  0  0  0  0  0  0  0  0  0
  1  2  2  0
  2  3  1  0
  3  4  1  0
  4  5  1  0
  5  6  1  0
  6  7  1  0
  7  8  1  0
  3  9  1  0
  9 10  2  0
 10 11  1  0
 11 12  1  0
 12 13  1  0
 13 14  1  0
 14 15  1  0
 15 16  2  0
 16 17  1  0
 17 18  2  0
 18 19  1  0
 18 20  1  0
 20 21  1  0
 21 22  1  0
 22 23  1  0
 10  1  1  0
 19 15  1  0
  8  4  1  0
 23 17  1  0
  1 24  1  0
  2 25  1  0
  4 26  1  0
  5 27  1  0
  5 28  1  0
  6 29  1  0
  6 30  1  0
  7 31  1  0
  7 32  1  0
  8 33  1  0
  8 34  1  0
 11 35  1  0
 11 36  1  0
 12 37  1  0
 12 38  1  0
 13 39  1  0
 14 40  1  0
 14 41  1  0
 19 42  1  0
 20 43  1  0
 20 44  1  0
 21 45  1  0
 21 46  1  0
 22 47  1  0
 22 48  1  0
 23 49  1  0
 23 50  1  0
M  END
>  <Energy>  (314) 
1312.1920765871821

>  <compound_id>  (314) 
48744

>  <target_id>  (314) 
1

>  <reference_id>  (314) 
116

>  <inspiration_ids>  (314) 
[123, 116]

>  <energy_score>  (314) 
1211.928360026377

>  <distance_score>  (314) 
2.958099942076459

>  <path>  (314) 
/opt/xchem-fragalysis-2/maxwin/BulkDock/SCRATCH/511021/C48744-P116/C48744-P116.minimised.mol

>  <scratch_subdir>  (314) 
/opt/xchem-fragalysis-2/maxwin/BulkDock/SCRATCH/511021/C48744-P116

>  <fragmenstein_runtime>  (314) 
25.522186040878296

>  <fragmenstein_outcome>  (314) 
too moved

>  <fragmenstein_mode>  (314) 
expansion

>  <fragmenstein_error>  (314) 


$$$$
C17992-P123
     RDKit          3D

 45 47  0  0  0  0  0  0  0  0999 V2000
   -0.7749  -18.4524   26.6320 C   0  0  0  0  0  0  0  0  0  0  0  0
   -1.9013  -19.4631   26.7852 C   0  0  0  0  0  0  0  0  0  0  0  0
   -1.1853  -20.6126   28.1666 C   0  0  0  0  0  0  0  0  0  0  0  0
   -3.4277  -18.6908   27.3983 C   0  0  0  0  0  0  0  0  0  0  0  0
   -5.2996  -19.6889   27.0689 N   0  0  0  0  0  0  0  0  0  0  0  0
   -5.8521  -21.5305   27.4488 C   0  0  0  0  0  0  0  0  0  0  0  0
   -5.0759  -22.3434   27.8389 O   0  0  0  0  0  0  0  0  0  0  0  0
   -7.5870  -22.2813   27.4710 C   0  0  0  0  0  0  0  0  0  0  0  0
   -7.8983  -23.1919   26.5005 C   0  0  0  0  0  0  0  0  0  0  0  0
   -9.5586  -23.7924   26.7133 C   0  0  0  0  0  0  0  0  0  0  0  0
  -10.0228  -23.1528   27.7756 N   0  0  0  0  0  0  0  0  0  0  0  0
   -8.8228  -23.2282   28.3739 N   0  0  0  0  0  0  0  0  0  0  0  0
   -9.0476  -24.7480   29.1770 C   0  0  0  0  0  0  0  0  0  0  0  0
   -9.6854  -24.8402   30.6243 C   0  0  0  0  0  0  0  0  0  0  0  0
  -11.1888  -24.7007   30.4289 C   0  0  0  0  0  0  0  0  0  0  0  0
  -11.4707  -25.4371   29.1305 C   0  0  0  0  0  0  0  0  0  0  0  0
  -10.0947  -25.7658   28.5495 C   0  0  0  0  0  0  0  0  0  0  0  0
   -2.6812  -17.0012   26.9190 C   0  0  0  0  0  0  0  0  0  0  0  0
   -2.1667  -15.7508   27.3111 N   0  0  0  0  0  0  0  0  0  0  0  0
   -2.2647  -14.8475   25.9787 C   0  0  0  0  0  0  0  0  0  0  0  0
   -2.6885  -15.6647   24.9646 C   0  0  0  0  0  0  0  0  0  0  0  0
   -2.6976  -16.8602   25.5707 N   0  0  0  0  0  0  0  0  0  0  0  0
   -0.9723  -17.8773   25.8118 H   0  0  0  0  0  0  0  0  0  0  0  0
   -0.4847  -17.7945   27.4006 H   0  0  0  0  0  0  0  0  0  0  0  0
    0.1301  -18.8100   26.2600 H   0  0  0  0  0  0  0  0  0  0  0  0
   -2.3309  -19.6338   25.8374 H   0  0  0  0  0  0  0  0  0  0  0  0
   -0.5904  -21.4798   27.9482 H   0  0  0  0  0  0  0  0  0  0  0  0
   -1.8510  -20.9015   28.9695 H   0  0  0  0  0  0  0  0  0  0  0  0
   -0.5735  -20.1196   28.9323 H   0  0  0  0  0  0  0  0  0  0  0  0
   -4.0075  -17.6210   27.4163 H   0  0  0  0  0  0  0  0  0  0  0  0
   -6.0308  -19.2118   26.6911 H   0  0  0  0  0  0  0  0  0  0  0  0
   -7.3131  -23.4707   25.6235 H   0  0  0  0  0  0  0  0  0  0  0  0
  -10.1798  -24.2902   25.9736 H   0  0  0  0  0  0  0  0  0  0  0  0
   -8.0938  -25.2321   29.1336 H   0  0  0  0  0  0  0  0  0  0  0  0
   -9.4989  -25.8549   31.0074 H   0  0  0  0  0  0  0  0  0  0  0  0
   -9.3182  -24.2149   31.4332 H   0  0  0  0  0  0  0  0  0  0  0  0
  -11.4753  -23.6471   30.3412 H   0  0  0  0  0  0  0  0  0  0  0  0
  -11.7451  -25.1289   31.2683 H   0  0  0  0  0  0  0  0  0  0  0  0
  -12.0388  -26.3567   29.3071 H   0  0  0  0  0  0  0  0  0  0  0  0
  -12.0634  -24.8137   28.4534 H   0  0  0  0  0  0  0  0  0  0  0  0
   -9.8181  -26.7552   28.9306 H   0  0  0  0  0  0  0  0  0  0  0  0
  -10.1287  -25.9098   27.4738 H   0  0  0  0  0  0  0  0  0  0  0  0
   -2.0351  -13.8435   25.7028 H   0  0  0  0  0  0  0  0  0  0  0  0
   -2.9401  -15.4586   23.9492 H   0  0  0  0  0  0  0  0  0  0  0  0
   -2.7199  -17.7444   25.1706 H   0  0  0  0  0  0  0  0  0  0  0  0
  1  2  1  0
  2  3  1  0
  2  4  1  0
  4  5  1  0
  5  6  1  0
  6  7  2  0
  6  8  1  0
  8  9  2  0
  9 10  1  0
 10 11  2  0
 11 12  1  0
 12 13  1  0
 13 14  1  0
 14 15  1  0
 15 16  1  0
 16 17  1  0
  4 18  1  0
 18 19  2  0
 19 20  1  0
 20 21  2  0
 21 22  1  0
 12  8  1  0
 17 13  1  0
 22 18  1  0
  1 23  1  0
  1 24  1  0
  1 25  1  0
  2 26  1  0
  3 27  1  0
  3 28  1  0
  3 29  1  0
  4 30  1  0
  5 31  1  0
  9 32  1  0
 10 33  1  0
 13 34  1  0
 14 35  1  0
 14 36  1  0
 15 37  1  0
 15 38  1  0
 16 39  1  0
 16 40  1  0
 17 41  1  0
 17 42  1  0
 20 43  1  0
 21 44  1  0
 22 45  1  0
M  END
>  <Energy>  (315) 
816.366999685613

>  <compound_id>  (315) 
17992

>  <target_id>  (315) 
1

>  <reference_id>  (315) 
123

>  <inspiration_ids>  (315) 
[123, 116]

>  <energy_score>  (315) 
798.6982975206387

>  <distance_score>  (315) 
5.538370442823199

>  <path>  (315) 
/opt/xchem-fragalysis-2/maxwin/BulkDock/SCRATCH/511021/C17992-P123/C17992-P123.minimised.mol

>  <scratch_subdir>  (315) 
/opt/xchem-fragalysis-2/maxwin/BulkDock/SCRATCH/511021/C17992-P123

>  <fragmenstein_runtime>  (315) 
21.932872533798218

>  <fragmenstein_outcome>  (315) 
too moved

>  <fragmenstein_mode>  (315) 
expansion

>  <fragmenstein_error>  (315) 


$$$$
C17992-P116
     RDKit          3D

 45 47  0  0  0  0  0  0  0  0999 V2000
   -1.6339  -18.1037   27.0424 C   0  0  0  0  0  0  0  0  0  0  0  0
   -3.2780  -19.1299   27.2153 C   0  0  0  0  0  0  0  0  0  0  0  0
   -2.7605  -19.2007   25.8841 C   0  0  0  0  0  0  0  0  0  0  0  0
   -5.5136  -19.1794   27.1938 C   0  0  0  0  0  0  0  0  0  0  0  0
   -5.9332  -21.2304   27.7337 N   0  0  0  0  0  0  0  0  0  0  0  0
   -7.5098  -22.1485   28.0419 C   0  0  0  0  0  0  0  0  0  0  0  0
   -8.4405  -21.5516   27.7603 O   0  0  0  0  0  0  0  0  0  0  0  0
   -8.0595  -23.8211   29.0216 C   0  0  0  0  0  0  0  0  0  0  0  0
   -9.4200  -24.1346   28.1061 C   0  0  0  0  0  0  0  0  0  0  0  0
  -10.5716  -23.8131   28.8428 C   0  0  0  0  0  0  0  0  0  0  0  0
  -10.4608  -23.8886   30.3051 N   0  0  0  0  0  0  0  0  0  0  0  0
   -8.8737  -24.6025   30.8334 N   0  0  0  0  0  0  0  0  0  0  0  0
   -8.8228  -24.8013   33.0300 C   0  0  0  0  0  0  0  0  0  0  0  0
   -7.9317  -24.8284   35.2225 C   0  0  0  0  0  0  0  0  0  0  0  0
   -9.0522  -25.4995   37.1456 C   0  0  0  0  0  0  0  0  0  0  0  0
  -10.8834  -25.8462   36.1847 C   0  0  0  0  0  0  0  0  0  0  0  0
  -10.3644  -25.9493   33.9415 C   0  0  0  0  0  0  0  0  0  0  0  0
   -4.3208  -17.5821   27.8224 C   0  0  0  0  0  0  0  0  0  0  0  0
   -4.4100  -16.5258   28.7125 N   0  0  0  0  0  0  0  0  0  0  0  0
   -3.0215  -15.4476   28.6618 C   0  0  0  0  0  0  0  0  0  0  0  0
   -2.2556  -15.9655   27.7875 C   0  0  0  0  0  0  0  0  0  0  0  0
   -3.1523  -16.9472   27.2855 N   0  0  0  0  0  0  0  0  0  0  0  0
   -1.4554  -17.1858   26.4331 H   0  0  0  0  0  0  0  0  0  0  0  0
   -1.2675  -17.9820   28.0362 H   0  0  0  0  0  0  0  0  0  0  0  0
   -0.9173  -18.3342   26.1730 H   0  0  0  0  0  0  0  0  0  0  0  0
   -2.6407  -19.9177   27.5866 H   0  0  0  0  0  0  0  0  0  0  0  0
   -2.4840  -18.2121   25.5033 H   0  0  0  0  0  0  0  0  0  0  0  0
   -3.6114  -19.6288   25.2321 H   0  0  0  0  0  0  0  0  0  0  0  0
   -1.9186  -19.7343   26.0550 H   0  0  0  0  0  0  0  0  0  0  0  0
   -5.7735  -19.4600   26.1281 H   0  0  0  0  0  0  0  0  0  0  0  0
   -5.1750  -21.8536   27.9261 H   0  0  0  0  0  0  0  0  0  0  0  0
   -9.3639  -23.9864   27.0386 H   0  0  0  0  0  0  0  0  0  0  0  0
  -11.5027  -23.4356   28.4246 H   0  0  0  0  0  0  0  0  0  0  0  0
   -8.5397  -25.6579   32.4266 H   0  0  0  0  0  0  0  0  0  0  0  0
   -6.9703  -25.1863   35.8163 H   0  0  0  0  0  0  0  0  0  0  0  0
   -7.4778  -23.7618   35.0360 H   0  0  0  0  0  0  0  0  0  0  0  0
   -9.5337  -25.1365   38.0815 H   0  0  0  0  0  0  0  0  0  0  0  0
   -8.2853  -26.2335   37.6268 H   0  0  0  0  0  0  0  0  0  0  0  0
  -11.3988  -26.8133   36.3988 H   0  0  0  0  0  0  0  0  0  0  0  0
  -11.5924  -25.1324   36.5656 H   0  0  0  0  0  0  0  0  0  0  0  0
  -10.9539  -26.7851   33.4717 H   0  0  0  0  0  0  0  0  0  0  0  0
  -10.9243  -25.3384   33.1652 H   0  0  0  0  0  0  0  0  0  0  0  0
   -2.8881  -14.7154   29.4011 H   0  0  0  0  0  0  0  0  0  0  0  0
   -1.2098  -15.8413   27.6741 H   0  0  0  0  0  0  0  0  0  0  0  0
   -3.1388  -17.0088   26.2907 H   0  0  0  0  0  0  0  0  0  0  0  0
  1  2  1  0
  2  3  1  0
  2  4  1  0
  4  5  1  0
  5  6  1  0
  6  7  2  0
  6  8  1  0
  8  9  2  0
  9 10  1  0
 10 11  2  0
 11 12  1  0
 12 13  1  0
 13 14  1  0
 14 15  1  0
 15 16  1  0
 16 17  1  0
  4 18  1  0
 18 19  2  0
 19 20  1  0
 20 21  2  0
 21 22  1  0
 12  8  1  0
 17 13  1  0
 22 18  1  0
  1 23  1  0
  1 24  1  0
  1 25  1  0
  2 26  1  0
  3 27  1  0
  3 28  1  0
  3 29  1  0
  4 30  1  0
  5 31  1  0
  9 32  1  0
 10 33  1  0
 13 34  1  0
 14 35  1  0
 14 36  1  0
 15 37  1  0
 15 38  1  0
 16 39  1  0
 16 40  1  0
 17 41  1  0
 17 42  1  0
 20 43  1  0
 21 44  1  0
 22 45  1  0
M  END
>  <Energy>  (316) 
2659.3723370974112

>  <compound_id>  (316) 
17992

>  <target_id>  (316) 
1

>  <reference_id>  (316) 
116

>  <inspiration_ids>  (316) 
[123, 116]

>  <energy_score>  (316) 
2641.7036349324385

>  <distance_score>  (316) 
4.179547928615819

>  <path>  (316) 
/opt/xchem-fragalysis-2/maxwin/BulkDock/SCRATCH/511021/C17992-P116/C17992-P116.minimised.mol

>  <scratch_subdir>  (316) 
/opt/xchem-fragalysis-2/maxwin/BulkDock/SCRATCH/511021/C17992-P116

>  <fragmenstein_runtime>  (316) 
19.505744218826294

>  <fragmenstein_outcome>  (316) 
too moved

>  <fragmenstein_mode>  (316) 
expansion

>  <fragmenstein_error>  (316) 


$$$$
C17993-P123
     RDKit          3D

 36 38  0  0  0  0  0  0  0  0999 V2000
   -5.0225  -20.1585   32.1289 O   0  0  0  0  0  0  0  0  0  0  0  0
   -6.0202  -19.5543   32.4039 C   0  0  0  0  0  0  0  0  0  0  0  0
   -6.4171  -17.8365   31.8729 N   0  0  0  0  0  0  0  0  0  0  0  0
   -5.4720  -16.5947   30.6239 C   0  0  0  0  0  0  0  0  0  0  0  0
   -3.8609  -16.2142   29.4788 C   0  0  0  0  0  0  0  0  0  0  0  0
   -2.8896  -15.2105   29.4980 N   0  0  0  0  0  0  0  0  0  0  0  0
   -2.1095  -15.2038   28.0709 C   0  0  0  0  0  0  0  0  0  0  0  0
   -2.3582  -16.3745   27.3806 C   0  0  0  0  0  0  0  0  0  0  0  0
   -3.5611  -16.6135   27.9806 N   0  0  0  0  0  0  0  0  0  0  0  0
   -7.4422  -20.5922   33.3622 C   0  0  0  0  0  0  0  0  0  0  0  0
   -8.0295  -22.3055   33.2656 C   0  0  0  0  0  0  0  0  0  0  0  0
   -9.3303  -22.8209   32.8299 C   0  0  0  0  0  0  0  0  0  0  0  0
   -9.8233  -21.2953   32.2733 N   0  0  0  0  0  0  0  0  0  0  0  0
  -11.2879  -21.2361   32.1117 C   0  0  0  0  0  0  0  0  0  0  0  0
  -12.2726  -21.8852   33.1220 C   0  0  0  0  0  0  0  0  0  0  0  0
  -12.7755  -23.1309   32.4530 C   0  0  0  0  0  0  0  0  0  0  0  0
  -12.9577  -22.6638   31.0243 C   0  0  0  0  0  0  0  0  0  0  0  0
  -11.7179  -21.8374   30.7611 C   0  0  0  0  0  0  0  0  0  0  0  0
   -8.9415  -20.1787   33.1374 N   0  0  0  0  0  0  0  0  0  0  0  0
   -7.2681  -17.5425   32.3043 H   0  0  0  0  0  0  0  0  0  0  0  0
   -5.9036  -15.5955   30.6660 H   0  0  0  0  0  0  0  0  0  0  0  0
   -5.7985  -17.0645   29.6873 H   0  0  0  0  0  0  0  0  0  0  0  0
   -1.1431  -14.8158   28.0195 H   0  0  0  0  0  0  0  0  0  0  0  0
   -2.0147  -17.1586   26.7239 H   0  0  0  0  0  0  0  0  0  0  0  0
   -4.0654  -17.2964   27.4169 H   0  0  0  0  0  0  0  0  0  0  0  0
   -7.5796  -23.1957   32.8873 H   0  0  0  0  0  0  0  0  0  0  0  0
   -9.8537  -23.6906   32.4512 H   0  0  0  0  0  0  0  0  0  0  0  0
  -11.4437  -20.2004   32.3039 H   0  0  0  0  0  0  0  0  0  0  0  0
  -13.1265  -21.2072   33.2591 H   0  0  0  0  0  0  0  0  0  0  0  0
  -11.9456  -22.1193   34.1258 H   0  0  0  0  0  0  0  0  0  0  0  0
  -12.0576  -23.9535   32.5138 H   0  0  0  0  0  0  0  0  0  0  0  0
  -13.6908  -23.4426   32.9526 H   0  0  0  0  0  0  0  0  0  0  0  0
  -13.8590  -22.0510   30.9390 H   0  0  0  0  0  0  0  0  0  0  0  0
  -13.0319  -23.4908   30.3120 H   0  0  0  0  0  0  0  0  0  0  0  0
  -11.8576  -21.1246   29.9501 H   0  0  0  0  0  0  0  0  0  0  0  0
  -11.0037  -22.5576   30.3870 H   0  0  0  0  0  0  0  0  0  0  0  0
  1  2  2  0
  2  3  1  0
  3  4  1  0
  4  5  1  0
  5  6  2  0
  6  7  1  0
  7  8  2  0
  8  9  1  0
  2 10  1  0
 10 11  1  0
 11 12  2  0
 12 13  1  0
 13 14  1  0
 14 15  1  0
 15 16  1  0
 16 17  1  0
 17 18  1  0
 13 19  1  0
  9  5  1  0
 19 10  2  0
 18 14  1  0
  3 20  1  0
  4 21  1  0
  4 22  1  0
  7 23  1  0
  8 24  1  0
  9 25  1  0
 11 26  1  0
 12 27  1  0
 14 28  1  0
 15 29  1  0
 15 30  1  0
 16 31  1  0
 16 32  1  0
 17 33  1  0
 17 34  1  0
 18 35  1  0
 18 36  1  0
M  END
>  <Energy>  (317) 
622.97634905126642

>  <compound_id>  (317) 
17993

>  <target_id>  (317) 
1

>  <reference_id>  (317) 
123

>  <inspiration_ids>  (317) 
[123, 116]

>  <energy_score>  (317) 
566.4927138108773

>  <distance_score>  (317) 
4.337989640831303

>  <path>  (317) 
/opt/xchem-fragalysis-2/maxwin/BulkDock/SCRATCH/511021/C17993-P123/C17993-P123.minimised.mol

>  <scratch_subdir>  (317) 
/opt/xchem-fragalysis-2/maxwin/BulkDock/SCRATCH/511021/C17993-P123

>  <fragmenstein_runtime>  (317) 
17.24936079978943

>  <fragmenstein_outcome>  (317) 
too moved

>  <fragmenstein_mode>  (317) 
expansion

>  <fragmenstein_error>  (317) 


$$$$
C17993-P116
     RDKit          3D

 36 38  0  0  0  0  0  0  0  0999 V2000
  -10.3525  -24.6046   26.2775 O   0  0  0  0  0  0  0  0  0  0  0  0
   -9.6912  -24.5215   27.2946 C   0  0  0  0  0  0  0  0  0  0  0  0
   -8.4087  -23.5627   27.6431 N   0  0  0  0  0  0  0  0  0  0  0  0
   -7.5545  -22.5311   26.7008 C   0  0  0  0  0  0  0  0  0  0  0  0
   -5.8958  -22.6018   25.6436 C   0  0  0  0  0  0  0  0  0  0  0  0
   -5.8430  -23.2162   24.3167 N   0  0  0  0  0  0  0  0  0  0  0  0
   -5.2335  -22.4672   23.2691 C   0  0  0  0  0  0  0  0  0  0  0  0
   -4.8032  -21.2531   23.7308 C   0  0  0  0  0  0  0  0  0  0  0  0
   -5.0782  -21.1895   25.1388 N   0  0  0  0  0  0  0  0  0  0  0  0
  -10.1051  -25.7672   28.5835 C   0  0  0  0  0  0  0  0  0  0  0  0
   -8.8139  -26.2645   29.9942 C   0  0  0  0  0  0  0  0  0  0  0  0
   -8.6889  -27.6462   30.0002 C   0  0  0  0  0  0  0  0  0  0  0  0
   -9.9776  -27.9984   30.0493 N   0  0  0  0  0  0  0  0  0  0  0  0
  -10.9907  -28.3386   31.5421 C   0  0  0  0  0  0  0  0  0  0  0  0
  -11.1076  -29.7337   32.6493 C   0  0  0  0  0  0  0  0  0  0  0  0
  -12.1893  -29.5117   33.6897 C   0  0  0  0  0  0  0  0  0  0  0  0
  -11.9434  -28.1324   34.1783 C   0  0  0  0  0  0  0  0  0  0  0  0
  -11.2987  -27.3516   32.8646 C   0  0  0  0  0  0  0  0  0  0  0  0
  -10.6020  -27.3116   28.5308 N   0  0  0  0  0  0  0  0  0  0  0  0
   -8.1534  -23.6815   28.5786 H   0  0  0  0  0  0  0  0  0  0  0  0
   -6.8947  -22.2643   27.5256 H   0  0  0  0  0  0  0  0  0  0  0  0
   -7.6746  -23.3057   25.9648 H   0  0  0  0  0  0  0  0  0  0  0  0
   -5.1945  -22.8738   22.2674 H   0  0  0  0  0  0  0  0  0  0  0  0
   -4.3690  -20.4196   23.2282 H   0  0  0  0  0  0  0  0  0  0  0  0
   -5.1527  -20.3160   25.6389 H   0  0  0  0  0  0  0  0  0  0  0  0
   -8.1684  -25.5412   30.4318 H   0  0  0  0  0  0  0  0  0  0  0  0
   -7.9195  -28.3240   29.6473 H   0  0  0  0  0  0  0  0  0  0  0  0
  -11.8988  -28.2818   30.9757 H   0  0  0  0  0  0  0  0  0  0  0  0
  -11.4157  -30.7300   32.3082 H   0  0  0  0  0  0  0  0  0  0  0  0
  -10.1586  -29.9274   33.1648 H   0  0  0  0  0  0  0  0  0  0  0  0
  -12.1105  -30.2535   34.4799 H   0  0  0  0  0  0  0  0  0  0  0  0
  -13.1907  -29.6297   33.2785 H   0  0  0  0  0  0  0  0  0  0  0  0
  -12.8456  -27.6693   34.5897 H   0  0  0  0  0  0  0  0  0  0  0  0
  -11.2829  -28.1890   35.0476 H   0  0  0  0  0  0  0  0  0  0  0  0
  -11.8838  -26.5311   32.6667 H   0  0  0  0  0  0  0  0  0  0  0  0
  -10.5985  -26.5777   33.1643 H   0  0  0  0  0  0  0  0  0  0  0  0
  1  2  2  0
  2  3  1  0
  3  4  1  0
  4  5  1  0
  5  6  2  0
  6  7  1  0
  7  8  2  0
  8  9  1  0
  2 10  1  0
 10 11  1  0
 11 12  2  0
 12 13  1  0
 13 14  1  0
 14 15  1  0
 15 16  1  0
 16 17  1  0
 17 18  1  0
 13 19  1  0
  9  5  1  0
 19 10  2  0
 18 14  1  0
  3 20  1  0
  4 21  1  0
  4 22  1  0
  7 23  1  0
  8 24  1  0
  9 25  1  0
 11 26  1  0
 12 27  1  0
 14 28  1  0
 15 29  1  0
 15 30  1  0
 16 31  1  0
 16 32  1  0
 17 33  1  0
 17 34  1  0
 18 35  1  0
 18 36  1  0
M  END
>  <Energy>  (318) 
591.45792946240385

>  <compound_id>  (318) 
17993

>  <target_id>  (318) 
1

>  <reference_id>  (318) 
116

>  <inspiration_ids>  (318) 
[123, 116]

>  <energy_score>  (318) 
534.9742942220036

>  <distance_score>  (318) 
8.80228553296061

>  <path>  (318) 
/opt/xchem-fragalysis-2/maxwin/BulkDock/SCRATCH/511021/C17993-P116/C17993-P116.minimised.mol

>  <scratch_subdir>  (318) 
/opt/xchem-fragalysis-2/maxwin/BulkDock/SCRATCH/511021/C17993-P116

>  <fragmenstein_runtime>  (318) 
16.842989921569824

>  <fragmenstein_outcome>  (318) 
too moved

>  <fragmenstein_mode>  (318) 
expansion

>  <fragmenstein_error>  (318) 


$$$$
C48746-P123
     RDKit          3D

 46 49  0  0  0  0  0  0  0  0999 V2000
  -13.5267  -18.1660   36.5126 O   0  0  0  0  0  0  0  0  0  0  0  0
  -12.8266  -18.3593   35.5607 C   0  0  0  0  0  0  0  0  0  0  0  0
  -11.6885  -17.6320   35.0722 N   0  0  0  0  0  0  0  0  0  0  0  0
  -10.9688  -16.4904   35.6289 C   0  0  0  0  0  0  0  0  0  0  0  0
  -10.5673  -15.4425   34.5964 C   0  0  0  0  0  0  0  0  0  0  0  0
   -9.3855  -14.8616   34.3847 N   0  0  0  0  0  0  0  0  0  0  0  0
   -9.6092  -13.9135   33.4098 C   0  0  0  0  0  0  0  0  0  0  0  0
  -10.9171  -13.9313   33.0019 C   0  0  0  0  0  0  0  0  0  0  0  0
  -11.5132  -14.8962   33.7515 N   0  0  0  0  0  0  0  0  0  0  0  0
  -11.5592  -13.0622   31.9907 C   0  0  0  0  0  0  0  0  0  0  0  0
  -10.4747  -12.2992   31.2045 C   0  0  0  0  0  0  0  0  0  0  0  0
   -9.3324  -11.8027   32.1146 C   0  0  0  0  0  0  0  0  0  0  0  0
   -8.6225  -12.9694   32.8356 C   0  0  0  0  0  0  0  0  0  0  0  0
  -13.1482  -19.5796   34.7016 C   0  0  0  0  0  0  0  0  0  0  0  0
  -14.4162  -20.2154   34.5425 C   0  0  0  0  0  0  0  0  0  0  0  0
  -14.2152  -21.3167   33.7379 C   0  0  0  0  0  0  0  0  0  0  0  0
  -12.8935  -21.3033   33.4063 N   0  0  0  0  0  0  0  0  0  0  0  0
  -12.1834  -22.2087   32.5203 C   0  0  0  0  0  0  0  0  0  0  0  0
  -12.6446  -22.3438   31.0666 C   0  0  0  0  0  0  0  0  0  0  0  0
  -12.1032  -23.6915   30.5855 C   0  0  0  0  0  0  0  0  0  0  0  0
  -11.5632  -24.4067   31.8194 C   0  0  0  0  0  0  0  0  0  0  0  0
  -12.1391  -23.6502   33.0059 C   0  0  0  0  0  0  0  0  0  0  0  0
  -12.2423  -20.2325   33.9396 N   0  0  0  0  0  0  0  0  0  0  0  0
  -11.3902  -18.0389   34.1845 H   0  0  0  0  0  0  0  0  0  0  0  0
  -11.5899  -16.0325   36.4054 H   0  0  0  0  0  0  0  0  0  0  0  0
  -10.0650  -16.8864   36.1025 H   0  0  0  0  0  0  0  0  0  0  0  0
  -12.4618  -15.2358   33.6764 H   0  0  0  0  0  0  0  0  0  0  0  0
  -12.1769  -13.6477   31.3012 H   0  0  0  0  0  0  0  0  0  0  0  0
  -12.2137  -12.3437   32.4980 H   0  0  0  0  0  0  0  0  0  0  0  0
  -10.0506  -12.9596   30.4366 H   0  0  0  0  0  0  0  0  0  0  0  0
  -10.9312  -11.4531   30.6788 H   0  0  0  0  0  0  0  0  0  0  0  0
   -9.7453  -11.1084   32.8578 H   0  0  0  0  0  0  0  0  0  0  0  0
   -8.6003  -11.2420   31.5224 H   0  0  0  0  0  0  0  0  0  0  0  0
   -7.9890  -12.5738   33.6287 H   0  0  0  0  0  0  0  0  0  0  0  0
   -8.0218  -13.5015   32.0961 H   0  0  0  0  0  0  0  0  0  0  0  0
  -15.3519  -19.9061   34.9866 H   0  0  0  0  0  0  0  0  0  0  0  0
  -14.8875  -22.0866   33.3798 H   0  0  0  0  0  0  0  0  0  0  0  0
  -11.1714  -21.8145   32.4204 H   0  0  0  0  0  0  0  0  0  0  0  0
  -12.2221  -21.5551   30.4374 H   0  0  0  0  0  0  0  0  0  0  0  0
  -13.7307  -22.2909   30.9738 H   0  0  0  0  0  0  0  0  0  0  0  0
  -12.8841  -24.2686   30.0864 H   0  0  0  0  0  0  0  0  0  0  0  0
  -11.3131  -23.5579   29.8406 H   0  0  0  0  0  0  0  0  0  0  0  0
  -11.8226  -25.4687   31.8324 H   0  0  0  0  0  0  0  0  0  0  0  0
  -10.4688  -24.3386   31.8349 H   0  0  0  0  0  0  0  0  0  0  0  0
  -11.5390  -23.7924   33.9020 H   0  0  0  0  0  0  0  0  0  0  0  0
  -13.1425  -23.9980   33.2493 H   0  0  0  0  0  0  0  0  0  0  0  0
  1  2  2  0
  2  3  1  0
  3  4  1  0
  4  5  1  0
  5  6  2  0
  6  7  1  0
  7  8  2  0
  8  9  1  0
  8 10  1  0
 10 11  1  0
 11 12  1  0
 12 13  1  0
  2 14  1  0
 14 15  1  0
 15 16  2  0
 16 17  1  0
 17 18  1  0
 18 19  1  0
 19 20  1  0
 20 21  1  0
 21 22  1  0
 17 23  1  0
  9  5  1  0
 23 14  2  0
 13  7  1  0
 22 18  1  0
  3 24  1  0
  4 25  1  0
  4 26  1  0
  9 27  1  0
 10 28  1  0
 10 29  1  0
 11 30  1  0
 11 31  1  0
 12 32  1  0
 12 33  1  0
 13 34  1  0
 13 35  1  0
 15 36  1  0
 16 37  1  0
 18 38  1  0
 19 39  1  0
 19 40  1  0
 20 41  1  0
 20 42  1  0
 21 43  1  0
 21 44  1  0
 22 45  1  0
 22 46  1  0
M  END
>  <Energy>  (319) 
40.859247049666727

>  <compound_id>  (319) 
48746

>  <target_id>  (319) 
1

>  <reference_id>  (319) 
123

>  <inspiration_ids>  (319) 
[123, 116]

>  <energy_score>  (319) 
-29.9973594275433

>  <distance_score>  (319) 
8.490938196299782

>  <path>  (319) 
/opt/xchem-fragalysis-2/maxwin/BulkDock/SCRATCH/511021/C48746-P123/C48746-P123.minimised.mol

>  <scratch_subdir>  (319) 
/opt/xchem-fragalysis-2/maxwin/BulkDock/SCRATCH/511021/C48746-P123

>  <fragmenstein_runtime>  (319) 
25.450716257095337

>  <fragmenstein_outcome>  (319) 
too moved

>  <fragmenstein_mode>  (319) 
expansion

>  <fragmenstein_error>  (319) 


$$$$
C48746-P116
     RDKit          3D

 46 49  0  0  0  0  0  0  0  0999 V2000
   -6.3567  -20.8589   32.8378 O   0  0  0  0  0  0  0  0  0  0  0  0
   -7.2745  -20.5720   32.0799 C   0  0  0  0  0  0  0  0  0  0  0  0
   -7.3856  -19.0440   30.7038 N   0  0  0  0  0  0  0  0  0  0  0  0
   -6.1073  -17.5765   30.0977 C   0  0  0  0  0  0  0  0  0  0  0  0
   -4.6539  -16.5324   29.2121 C   0  0  0  0  0  0  0  0  0  0  0  0
   -3.6314  -16.8511   28.0725 N   0  0  0  0  0  0  0  0  0  0  0  0
   -2.3000  -15.7730   28.0738 C   0  0  0  0  0  0  0  0  0  0  0  0
   -2.4785  -14.7839   28.9467 C   0  0  0  0  0  0  0  0  0  0  0  0
   -3.5254  -15.2398   29.7717 N   0  0  0  0  0  0  0  0  0  0  0  0
   -1.7503  -13.4204   28.9711 C   0  0  0  0  0  0  0  0  0  0  0  0
   -0.3208  -13.6586   29.3695 C   0  0  0  0  0  0  0  0  0  0  0  0
    0.1815  -14.5779   28.2771 C   0  0  0  0  0  0  0  0  0  0  0  0
   -0.8203  -15.8836   28.1011 C   0  0  0  0  0  0  0  0  0  0  0  0
   -9.1113  -21.7995   32.3948 C   0  0  0  0  0  0  0  0  0  0  0  0
  -10.7431  -21.5665   31.4505 C   0  0  0  0  0  0  0  0  0  0  0  0
  -11.5445  -22.8201   31.6682 C   0  0  0  0  0  0  0  0  0  0  0  0
  -11.4366  -24.1808   32.8642 N   0  0  0  0  0  0  0  0  0  0  0  0
  -13.0479  -24.8009   34.2429 C   0  0  0  0  0  0  0  0  0  0  0  0
  -13.1109  -26.7550   34.4553 C   0  0  0  0  0  0  0  0  0  0  0  0
  -12.9971  -27.4046   35.7892 C   0  0  0  0  0  0  0  0  0  0  0  0
  -12.2634  -26.3336   36.4169 C   0  0  0  0  0  0  0  0  0  0  0  0
  -12.8882  -24.7356   35.9111 C   0  0  0  0  0  0  0  0  0  0  0  0
   -9.6753  -23.5050   32.7884 N   0  0  0  0  0  0  0  0  0  0  0  0
   -8.1965  -19.0826   30.1674 H   0  0  0  0  0  0  0  0  0  0  0  0
   -6.1867  -16.6317   30.6529 H   0  0  0  0  0  0  0  0  0  0  0  0
   -6.4291  -17.6892   29.0337 H   0  0  0  0  0  0  0  0  0  0  0  0
   -4.0730  -14.4640   30.0609 H   0  0  0  0  0  0  0  0  0  0  0  0
   -1.7702  -12.9993   27.9531 H   0  0  0  0  0  0  0  0  0  0  0  0
   -2.2275  -12.6515   29.5772 H   0  0  0  0  0  0  0  0  0  0  0  0
    0.2500  -12.7244   29.3872 H   0  0  0  0  0  0  0  0  0  0  0  0
   -0.2330  -14.1289   30.3550 H   0  0  0  0  0  0  0  0  0  0  0  0
    1.1953  -14.9131   28.5233 H   0  0  0  0  0  0  0  0  0  0  0  0
    0.2963  -13.9243   27.4044 H   0  0  0  0  0  0  0  0  0  0  0  0
   -0.6272  -16.6417   27.3449 H   0  0  0  0  0  0  0  0  0  0  0  0
   -0.5307  -16.1630   29.1035 H   0  0  0  0  0  0  0  0  0  0  0  0
  -10.9744  -20.9235   30.6240 H   0  0  0  0  0  0  0  0  0  0  0  0
  -12.3677  -22.8780   30.9941 H   0  0  0  0  0  0  0  0  0  0  0  0
  -14.0759  -24.7521   33.8215 H   0  0  0  0  0  0  0  0  0  0  0  0
  -12.2173  -27.1902   33.9380 H   0  0  0  0  0  0  0  0  0  0  0  0
  -14.0401  -26.8183   34.0512 H   0  0  0  0  0  0  0  0  0  0  0  0
  -13.7519  -27.6495   36.4920 H   0  0  0  0  0  0  0  0  0  0  0  0
  -12.4942  -28.3727   35.6189 H   0  0  0  0  0  0  0  0  0  0  0  0
  -11.3878  -26.0521   37.0038 H   0  0  0  0  0  0  0  0  0  0  0  0
  -11.4750  -26.8642   35.9505 H   0  0  0  0  0  0  0  0  0  0  0  0
  -13.0783  -23.6868   36.2702 H   0  0  0  0  0  0  0  0  0  0  0  0
  -11.9603  -24.2882   36.2495 H   0  0  0  0  0  0  0  0  0  0  0  0
  1  2  2  0
  2  3  1  0
  3  4  1  0
  4  5  1  0
  5  6  2  0
  6  7  1  0
  7  8  2  0
  8  9  1  0
  8 10  1  0
 10 11  1  0
 11 12  1  0
 12 13  1  0
  2 14  1  0
 14 15  1  0
 15 16  2  0
 16 17  1  0
 17 18  1  0
 18 19  1  0
 19 20  1  0
 20 21  1  0
 21 22  1  0
 17 23  1  0
  9  5  1  0
 23 14  2  0
 13  7  1  0
 22 18  1  0
  3 24  1  0
  4 25  1  0
  4 26  1  0
  9 27  1  0
 10 28  1  0
 10 29  1  0
 11 30  1  0
 11 31  1  0
 12 32  1  0
 12 33  1  0
 13 34  1  0
 13 35  1  0
 15 36  1  0
 16 37  1  0
 18 38  1  0
 19 39  1  0
 19 40  1  0
 20 41  1  0
 20 42  1  0
 21 43  1  0
 21 44  1  0
 22 45  1  0
 22 46  1  0
M  END
>  <Energy>  (320) 
1697.0235057768978

>  <compound_id>  (320) 
48746

>  <target_id>  (320) 
1

>  <reference_id>  (320) 
116

>  <inspiration_ids>  (320) 
[123, 116]

>  <energy_score>  (320) 
1626.166899299684

>  <distance_score>  (320) 
3.33306580654865

>  <path>  (320) 
/opt/xchem-fragalysis-2/maxwin/BulkDock/SCRATCH/511021/C48746-P116/C48746-P116.minimised.mol

>  <scratch_subdir>  (320) 
/opt/xchem-fragalysis-2/maxwin/BulkDock/SCRATCH/511021/C48746-P116

>  <fragmenstein_runtime>  (320) 
19.601324319839478

>  <fragmenstein_outcome>  (320) 
too moved

>  <fragmenstein_mode>  (320) 
expansion

>  <fragmenstein_error>  (320) 


$$$$
C17995-P123
     RDKit          3D

 43 45  0  0  0  0  0  0  0  0999 V2000
  -11.0490  -14.9851   27.1954 C   0  0  0  0  0  0  0  0  0  0  0  0
   -9.6243  -15.8863   26.7732 C   0  0  0  0  0  0  0  0  0  0  0  0
   -9.5916  -17.3254   26.7480 N   0  0  0  0  0  0  0  0  0  0  0  0
   -9.0737  -18.6265   27.9021 C   0  0  0  0  0  0  0  0  0  0  0  0
   -9.4900  -20.6599   27.7800 C   0  0  0  0  0  0  0  0  0  0  0  0
  -10.6340  -21.5951   28.6969 C   0  0  0  0  0  0  0  0  0  0  0  0
  -11.3452  -22.6845   28.0991 C   0  0  0  0  0  0  0  0  0  0  0  0
  -12.1125  -23.2126   29.0909 C   0  0  0  0  0  0  0  0  0  0  0  0
  -11.8343  -22.4812   30.2123 N   0  0  0  0  0  0  0  0  0  0  0  0
  -12.2534  -22.9298   31.5093 C   0  0  0  0  0  0  0  0  0  0  0  0
  -12.6886  -21.9470   32.5795 C   0  0  0  0  0  0  0  0  0  0  0  0
  -12.8177  -22.8210   33.8256 C   0  0  0  0  0  0  0  0  0  0  0  0
  -12.0018  -24.0807   33.5349 C   0  0  0  0  0  0  0  0  0  0  0  0
  -11.2732  -23.8424   32.2274 C   0  0  0  0  0  0  0  0  0  0  0  0
  -11.0263  -21.4097   29.9762 N   0  0  0  0  0  0  0  0  0  0  0  0
   -8.6409  -14.8451   26.9668 C   0  0  0  0  0  0  0  0  0  0  0  0
   -8.4684  -14.2512   28.1112 N   0  0  0  0  0  0  0  0  0  0  0  0
   -7.2785  -13.7614   28.0545 C   0  0  0  0  0  0  0  0  0  0  0  0
   -7.0790  -13.4198   26.7605 C   0  0  0  0  0  0  0  0  0  0  0  0
   -7.7049  -14.4856   26.1162 N   0  0  0  0  0  0  0  0  0  0  0  0
  -11.7704  -14.8732   26.3782 H   0  0  0  0  0  0  0  0  0  0  0  0
  -11.6854  -15.2794   28.0133 H   0  0  0  0  0  0  0  0  0  0  0  0
  -10.7951  -13.9507   27.4457 H   0  0  0  0  0  0  0  0  0  0  0  0
   -8.8214  -16.2460   27.4364 H   0  0  0  0  0  0  0  0  0  0  0  0
   -9.9074  -17.6384   25.8476 H   0  0  0  0  0  0  0  0  0  0  0  0
   -8.0773  -18.5870   27.6877 H   0  0  0  0  0  0  0  0  0  0  0  0
   -8.5308  -18.1774   28.7321 H   0  0  0  0  0  0  0  0  0  0  0  0
  -10.1825  -20.8224   26.9454 H   0  0  0  0  0  0  0  0  0  0  0  0
   -8.4952  -21.2186   27.5452 H   0  0  0  0  0  0  0  0  0  0  0  0
  -11.2970  -23.0406   27.0813 H   0  0  0  0  0  0  0  0  0  0  0  0
  -12.7772  -24.0649   29.1142 H   0  0  0  0  0  0  0  0  0  0  0  0
  -13.1228  -23.5397   31.2917 H   0  0  0  0  0  0  0  0  0  0  0  0
  -13.6504  -21.4843   32.3476 H   0  0  0  0  0  0  0  0  0  0  0  0
  -11.9434  -21.1609   32.7302 H   0  0  0  0  0  0  0  0  0  0  0  0
  -13.8666  -23.0914   33.9943 H   0  0  0  0  0  0  0  0  0  0  0  0
  -12.4863  -22.2931   34.7219 H   0  0  0  0  0  0  0  0  0  0  0  0
  -12.6837  -24.9071   33.3949 H   0  0  0  0  0  0  0  0  0  0  0  0
  -11.3568  -24.4008   34.3443 H   0  0  0  0  0  0  0  0  0  0  0  0
  -11.0897  -24.7767   31.6867 H   0  0  0  0  0  0  0  0  0  0  0  0
  -10.3097  -23.3589   32.3925 H   0  0  0  0  0  0  0  0  0  0  0  0
   -6.7682  -13.5687   28.9772 H   0  0  0  0  0  0  0  0  0  0  0  0
   -6.5147  -12.6585   26.2660 H   0  0  0  0  0  0  0  0  0  0  0  0
   -7.5964  -14.8783   25.1986 H   0  0  0  0  0  0  0  0  0  0  0  0
  1  2  1  0
  2  3  1  0
  3  4  1  0
  4  5  1  0
  5  6  1  0
  6  7  1  0
  7  8  2  0
  8  9  1  0
  9 10  1  0
 10 11  1  0
 11 12  1  0
 12 13  1  0
 13 14  1  0
  9 15  1  0
  2 16  1  0
 16 17  2  0
 17 18  1  0
 18 19  2  0
 19 20  1  0
 15  6  2  0
 20 16  1  0
 14 10  1  0
  1 21  1  0
  1 22  1  0
  1 23  1  0
  2 24  1  0
  3 25  1  0
  4 26  1  0
  4 27  1  0
  5 28  1  0
  5 29  1  0
  7 30  1  0
  8 31  1  0
 10 32  1  0
 11 33  1  0
 11 34  1  0
 12 35  1  0
 12 36  1  0
 13 37  1  0
 13 38  1  0
 14 39  1  0
 14 40  1  0
 18 41  1  0
 19 42  1  0
 20 43  1  0
M  END
>  <Energy>  (321) 
364.0760184439664

>  <compound_id>  (321) 
17995

>  <target_id>  (321) 
1

>  <reference_id>  (321) 
123

>  <inspiration_ids>  (321) 
[123, 116]

>  <energy_score>  (321) 
308.1427850142055

>  <distance_score>  (321) 
5.862199329253562

>  <path>  (321) 
/opt/xchem-fragalysis-2/maxwin/BulkDock/SCRATCH/511021/C17995-P123/C17995-P123.minimised.mol

>  <scratch_subdir>  (321) 
/opt/xchem-fragalysis-2/maxwin/BulkDock/SCRATCH/511021/C17995-P123

>  <fragmenstein_runtime>  (321) 
18.5791597366333

>  <fragmenstein_outcome>  (321) 
too moved

>  <fragmenstein_mode>  (321) 
expansion

>  <fragmenstein_error>  (321) 


$$$$
C17995-P116
     RDKit          3D

 43 45  0  0  0  0  0  0  0  0999 V2000
   -6.4644  -17.8319   28.7378 C   0  0  0  0  0  0  0  0  0  0  0  0
   -5.5495  -18.9290   27.6509 C   0  0  0  0  0  0  0  0  0  0  0  0
   -6.2223  -20.8350   27.3369 N   0  0  0  0  0  0  0  0  0  0  0  0
   -7.6930  -22.0968   27.7914 C   0  0  0  0  0  0  0  0  0  0  0  0
   -9.6062  -22.7698   28.2042 C   0  0  0  0  0  0  0  0  0  0  0  0
  -10.7808  -23.1527   29.7561 C   0  0  0  0  0  0  0  0  0  0  0  0
  -11.6674  -22.1920   30.1394 C   0  0  0  0  0  0  0  0  0  0  0  0
  -11.8436  -22.4433   31.4866 C   0  0  0  0  0  0  0  0  0  0  0  0
  -11.5166  -23.8006   32.6541 N   0  0  0  0  0  0  0  0  0  0  0  0
  -12.7913  -24.5376   34.2504 C   0  0  0  0  0  0  0  0  0  0  0  0
  -12.9587  -24.4385   35.9973 C   0  0  0  0  0  0  0  0  0  0  0  0
  -13.6813  -22.6305   36.7022 C   0  0  0  0  0  0  0  0  0  0  0  0
  -12.5125  -21.9499   36.9967 C   0  0  0  0  0  0  0  0  0  0  0  0
  -12.3076  -23.2070   35.9873 C   0  0  0  0  0  0  0  0  0  0  0  0
  -10.5478  -24.0620   31.2849 N   0  0  0  0  0  0  0  0  0  0  0  0
   -3.7312  -18.1078   27.7310 C   0  0  0  0  0  0  0  0  0  0  0  0
   -3.4997  -16.8415   27.9491 N   0  0  0  0  0  0  0  0  0  0  0  0
   -2.2251  -16.4701   27.5274 C   0  0  0  0  0  0  0  0  0  0  0  0
   -1.7646  -17.4513   26.7384 C   0  0  0  0  0  0  0  0  0  0  0  0
   -2.5512  -18.5199   26.9881 N   0  0  0  0  0  0  0  0  0  0  0  0
   -7.3928  -17.4788   28.2347 H   0  0  0  0  0  0  0  0  0  0  0  0
   -6.6325  -18.3729   29.6918 H   0  0  0  0  0  0  0  0  0  0  0  0
   -5.9443  -16.9710   29.2703 H   0  0  0  0  0  0  0  0  0  0  0  0
   -5.8495  -19.0649   26.6252 H   0  0  0  0  0  0  0  0  0  0  0  0
   -7.0857  -20.2482   27.2296 H   0  0  0  0  0  0  0  0  0  0  0  0
   -7.1096  -22.7739   28.3986 H   0  0  0  0  0  0  0  0  0  0  0  0
   -7.6095  -22.5952   26.8267 H   0  0  0  0  0  0  0  0  0  0  0  0
  -10.3456  -21.9963   27.9087 H   0  0  0  0  0  0  0  0  0  0  0  0
   -9.7286  -23.7044   27.6336 H   0  0  0  0  0  0  0  0  0  0  0  0
  -12.0544  -21.3618   29.5722 H   0  0  0  0  0  0  0  0  0  0  0  0
  -12.5156  -21.6777   31.8096 H   0  0  0  0  0  0  0  0  0  0  0  0
  -13.8366  -24.9514   34.0236 H   0  0  0  0  0  0  0  0  0  0  0  0
  -13.5181  -25.3421   35.8688 H   0  0  0  0  0  0  0  0  0  0  0  0
  -12.0486  -25.0487   36.4648 H   0  0  0  0  0  0  0  0  0  0  0  0
  -14.4513  -22.1940   36.0249 H   0  0  0  0  0  0  0  0  0  0  0  0
  -14.1441  -22.5688   37.7024 H   0  0  0  0  0  0  0  0  0  0  0  0
  -12.0593  -22.0390   37.9907 H   0  0  0  0  0  0  0  0  0  0  0  0
  -12.4516  -20.8771   36.7624 H   0  0  0  0  0  0  0  0  0  0  0  0
  -11.3080  -23.2684   36.2808 H   0  0  0  0  0  0  0  0  0  0  0  0
  -11.9765  -22.2233   35.6680 H   0  0  0  0  0  0  0  0  0  0  0  0
   -1.8480  -15.4821   27.7519 H   0  0  0  0  0  0  0  0  0  0  0  0
   -0.9377  -17.5479   26.0811 H   0  0  0  0  0  0  0  0  0  0  0  0
   -2.5362  -19.3482   26.4425 H   0  0  0  0  0  0  0  0  0  0  0  0
  1  2  1  0
  2  3  1  0
  3  4  1  0
  4  5  1  0
  5  6  1  0
  6  7  1  0
  7  8  2  0
  8  9  1  0
  9 10  1  0
 10 11  1  0
 11 12  1  0
 12 13  1  0
 13 14  1  0
  9 15  1  0
  2 16  1  0
 16 17  2  0
 17 18  1  0
 18 19  2  0
 19 20  1  0
 15  6  2  0
 20 16  1  0
 14 10  1  0
  1 21  1  0
  1 22  1  0
  1 23  1  0
  2 24  1  0
  3 25  1  0
  4 26  1  0
  4 27  1  0
  5 28  1  0
  5 29  1  0
  7 30  1  0
  8 31  1  0
 10 32  1  0
 11 33  1  0
 11 34  1  0
 12 35  1  0
 12 36  1  0
 13 37  1  0
 13 38  1  0
 14 39  1  0
 14 40  1  0
 18 41  1  0
 19 42  1  0
 20 43  1  0
M  END
>  <Energy>  (322) 
1671.7470632011693

>  <compound_id>  (322) 
17995

>  <target_id>  (322) 
1

>  <reference_id>  (322) 
116

>  <inspiration_ids>  (322) 
[123, 116]

>  <energy_score>  (322) 
1615.813829771404

>  <distance_score>  (322) 
4.115569503331669

>  <path>  (322) 
/opt/xchem-fragalysis-2/maxwin/BulkDock/SCRATCH/511021/C17995-P116/C17995-P116.minimised.mol

>  <scratch_subdir>  (322) 
/opt/xchem-fragalysis-2/maxwin/BulkDock/SCRATCH/511021/C17995-P116

>  <fragmenstein_runtime>  (322) 
18.798156261444092

>  <fragmenstein_outcome>  (322) 
too moved

>  <fragmenstein_mode>  (322) 
expansion

>  <fragmenstein_error>  (322) 


$$$$
C17996-P123
     RDKit          3D

 40 42  0  0  0  0  0  0  0  0999 V2000
   -5.5953  -19.2519   32.2012 O   0  0  0  0  0  0  0  0  0  0  0  0
   -6.0060  -18.1006   32.4261 C   0  0  0  0  0  0  0  0  0  0  0  0
   -5.7271  -16.6361   31.5812 N   0  0  0  0  0  0  0  0  0  0  0  0
   -4.8128  -16.2665   29.9158 C   0  0  0  0  0  0  0  0  0  0  0  0
   -2.9820  -15.8776   30.5462 C   0  0  0  0  0  0  0  0  0  0  0  0
   -2.7045  -16.1967   31.9377 O   0  0  0  0  0  0  0  0  0  0  0  0
   -3.5804  -16.2371   28.5714 C   0  0  0  0  0  0  0  0  0  0  0  0
   -2.6872  -15.2247   28.3669 N   0  0  0  0  0  0  0  0  0  0  0  0
   -2.0099  -15.6009   27.3283 C   0  0  0  0  0  0  0  0  0  0  0  0
   -2.0881  -16.9775   27.0466 C   0  0  0  0  0  0  0  0  0  0  0  0
   -3.3063  -17.1033   27.4823 N   0  0  0  0  0  0  0  0  0  0  0  0
   -6.9831  -18.0882   33.5562 C   0  0  0  0  0  0  0  0  0  0  0  0
   -7.4128  -17.0145   34.3135 C   0  0  0  0  0  0  0  0  0  0  0  0
   -8.7028  -17.3248   34.6559 C   0  0  0  0  0  0  0  0  0  0  0  0
   -9.0956  -18.3712   33.9525 N   0  0  0  0  0  0  0  0  0  0  0  0
   -8.0345  -19.2883   33.8626 N   0  0  0  0  0  0  0  0  0  0  0  0
   -8.4502  -20.8438   33.1349 C   0  0  0  0  0  0  0  0  0  0  0  0
   -8.4687  -22.7208   33.3176 C   0  0  0  0  0  0  0  0  0  0  0  0
   -9.8475  -23.3992   32.6793 C   0  0  0  0  0  0  0  0  0  0  0  0
  -10.7850  -22.2740   32.1582 C   0  0  0  0  0  0  0  0  0  0  0  0
  -10.0636  -20.8267   32.2614 C   0  0  0  0  0  0  0  0  0  0  0  0
   -6.1352  -15.8820   32.0744 H   0  0  0  0  0  0  0  0  0  0  0  0
   -5.3417  -17.0798   29.4339 H   0  0  0  0  0  0  0  0  0  0  0  0
   -1.9820  -15.5561   30.2227 H   0  0  0  0  0  0  0  0  0  0  0  0
   -3.2391  -14.8824   30.1871 H   0  0  0  0  0  0  0  0  0  0  0  0
   -2.4210  -17.1234   31.9501 H   0  0  0  0  0  0  0  0  0  0  0  0
   -1.8714  -14.8379   26.5928 H   0  0  0  0  0  0  0  0  0  0  0  0
   -1.6962  -17.7183   26.3569 H   0  0  0  0  0  0  0  0  0  0  0  0
   -3.8531  -17.8978   27.2184 H   0  0  0  0  0  0  0  0  0  0  0  0
   -6.9662  -16.0377   34.4031 H   0  0  0  0  0  0  0  0  0  0  0  0
   -9.4460  -16.7172   35.1554 H   0  0  0  0  0  0  0  0  0  0  0  0
   -7.4208  -21.0502   32.8068 H   0  0  0  0  0  0  0  0  0  0  0  0
   -7.7554  -23.2004   32.6768 H   0  0  0  0  0  0  0  0  0  0  0  0
   -8.1880  -23.1262   34.2626 H   0  0  0  0  0  0  0  0  0  0  0  0
  -10.3845  -24.0314   33.3905 H   0  0  0  0  0  0  0  0  0  0  0  0
   -9.5811  -24.1020   31.8800 H   0  0  0  0  0  0  0  0  0  0  0  0
  -11.7113  -22.2513   32.7492 H   0  0  0  0  0  0  0  0  0  0  0  0
  -11.1135  -22.4733   31.1320 H   0  0  0  0  0  0  0  0  0  0  0  0
  -10.7288  -20.1571   32.8163 H   0  0  0  0  0  0  0  0  0  0  0  0
  -10.1390  -20.5550   31.2330 H   0  0  0  0  0  0  0  0  0  0  0  0
  1  2  2  0
  2  3  1  0
  3  4  1  0
  4  5  1  0
  5  6  1  0
  4  7  1  0
  7  8  2  0
  8  9  1  0
  9 10  2  0
 10 11  1  0
  2 12  1  0
 12 13  2  0
 13 14  1  0
 14 15  2  0
 15 16  1  0
 16 17  1  0
 17 18  1  0
 18 19  1  0
 19 20  1  0
 20 21  1  0
 11  7  1  0
 16 12  1  0
 21 17  1  0
  3 22  1  0
  4 23  1  0
  5 24  1  0
  5 25  1  0
  6 26  1  0
  9 27  1  0
 10 28  1  0
 11 29  1  0
 13 30  1  0
 14 31  1  0
 17 32  1  0
 18 33  1  0
 18 34  1  0
 19 35  1  0
 19 36  1  0
 20 37  1  0
 20 38  1  0
 21 39  1  0
 21 40  1  0
M  END
>  <Energy>  (323) 
590.36073931531655

>  <compound_id>  (323) 
17996

>  <target_id>  (323) 
1

>  <reference_id>  (323) 
123

>  <inspiration_ids>  (323) 
[123, 116]

>  <energy_score>  (323) 
543.4828742192797

>  <distance_score>  (323) 
6.435792524230045

>  <path>  (323) 
/opt/xchem-fragalysis-2/maxwin/BulkDock/SCRATCH/511021/C17996-P123/C17996-P123.minimised.mol

>  <scratch_subdir>  (323) 
/opt/xchem-fragalysis-2/maxwin/BulkDock/SCRATCH/511021/C17996-P123

>  <fragmenstein_runtime>  (323) 
27.552444458007812

>  <fragmenstein_outcome>  (323) 
too moved

>  <fragmenstein_mode>  (323) 
expansion

>  <fragmenstein_error>  (323) 


$$$$
C17996-P116
     RDKit          3D

 40 42  0  0  0  0  0  0  0  0999 V2000
   -5.9352  -20.9058   32.2434 O   0  0  0  0  0  0  0  0  0  0  0  0
   -7.0173  -20.5173   31.9108 C   0  0  0  0  0  0  0  0  0  0  0  0
   -6.9921  -19.3812   30.1428 N   0  0  0  0  0  0  0  0  0  0  0  0
   -5.3606  -19.0741   28.5077 C   0  0  0  0  0  0  0  0  0  0  0  0
   -3.3111  -20.2376   29.0382 C   0  0  0  0  0  0  0  0  0  0  0  0
   -1.5818  -20.4513   28.6547 O   0  0  0  0  0  0  0  0  0  0  0  0
   -3.9399  -17.7287   27.8990 C   0  0  0  0  0  0  0  0  0  0  0  0
   -3.7087  -16.4753   28.1748 N   0  0  0  0  0  0  0  0  0  0  0  0
   -2.3450  -16.0584   27.8081 C   0  0  0  0  0  0  0  0  0  0  0  0
   -1.8194  -17.0390   27.0612 C   0  0  0  0  0  0  0  0  0  0  0  0
   -2.7171  -18.0249   27.1175 N   0  0  0  0  0  0  0  0  0  0  0  0
   -8.5078  -21.5677   33.0894 C   0  0  0  0  0  0  0  0  0  0  0  0
  -10.0414  -21.5641   32.2394 C   0  0  0  0  0  0  0  0  0  0  0  0
  -11.1882  -22.5914   31.8719 C   0  0  0  0  0  0  0  0  0  0  0  0
  -10.6469  -23.6504   32.2870 N   0  0  0  0  0  0  0  0  0  0  0  0
   -9.3397  -23.4680   32.8034 N   0  0  0  0  0  0  0  0  0  0  0  0
   -9.6744  -25.4753   32.8093 C   0  0  0  0  0  0  0  0  0  0  0  0
  -11.1900  -26.6211   33.4307 C   0  0  0  0  0  0  0  0  0  0  0  0
  -11.6352  -28.1592   34.0295 C   0  0  0  0  0  0  0  0  0  0  0  0
  -11.1643  -28.8045   32.7450 C   0  0  0  0  0  0  0  0  0  0  0  0
  -10.2791  -27.3332   31.9176 C   0  0  0  0  0  0  0  0  0  0  0  0
   -7.9126  -19.0239   29.9763 H   0  0  0  0  0  0  0  0  0  0  0  0
   -5.7703  -19.0309   27.4478 H   0  0  0  0  0  0  0  0  0  0  0  0
   -3.0802  -20.9390   29.9379 H   0  0  0  0  0  0  0  0  0  0  0  0
   -2.7846  -19.9361   27.7537 H   0  0  0  0  0  0  0  0  0  0  0  0
   -1.5205  -21.4279   28.6133 H   0  0  0  0  0  0  0  0  0  0  0  0
   -1.9645  -15.0875   28.0963 H   0  0  0  0  0  0  0  0  0  0  0  0
   -0.9110  -17.1974   26.5326 H   0  0  0  0  0  0  0  0  0  0  0  0
   -2.7131  -18.7997   26.4812 H   0  0  0  0  0  0  0  0  0  0  0  0
  -10.4564  -20.6075   31.8420 H   0  0  0  0  0  0  0  0  0  0  0  0
  -11.9844  -22.3917   31.1628 H   0  0  0  0  0  0  0  0  0  0  0  0
   -9.0790  -25.4407   31.8760 H   0  0  0  0  0  0  0  0  0  0  0  0
  -12.2247  -26.5870   33.7478 H   0  0  0  0  0  0  0  0  0  0  0  0
  -11.8053  -26.4187   32.6236 H   0  0  0  0  0  0  0  0  0  0  0  0
  -12.6944  -28.3413   34.2598 H   0  0  0  0  0  0  0  0  0  0  0  0
  -11.1590  -28.4411   34.9847 H   0  0  0  0  0  0  0  0  0  0  0  0
  -12.0853  -29.1435   32.3142 H   0  0  0  0  0  0  0  0  0  0  0  0
  -10.5292  -29.6769   32.9382 H   0  0  0  0  0  0  0  0  0  0  0  0
  -11.2873  -27.5277   31.4684 H   0  0  0  0  0  0  0  0  0  0  0  0
   -9.6720  -27.5470   30.9988 H   0  0  0  0  0  0  0  0  0  0  0  0
  1  2  2  0
  2  3  1  0
  3  4  1  0
  4  5  1  0
  5  6  1  0
  4  7  1  0
  7  8  2  0
  8  9  1  0
  9 10  2  0
 10 11  1  0
  2 12  1  0
 12 13  2  0
 13 14  1  0
 14 15  2  0
 15 16  1  0
 16 17  1  0
 17 18  1  0
 18 19  1  0
 19 20  1  0
 20 21  1  0
 11  7  1  0
 16 12  1  0
 21 17  1  0
  3 22  1  0
  4 23  1  0
  5 24  1  0
  5 25  1  0
  6 26  1  0
  9 27  1  0
 10 28  1  0
 11 29  1  0
 13 30  1  0
 14 31  1  0
 17 32  1  0
 18 33  1  0
 18 34  1  0
 19 35  1  0
 19 36  1  0
 20 37  1  0
 20 38  1  0
 21 39  1  0
 21 40  1  0
M  END
>  <Energy>  (324) 
2333.3205857077392

>  <compound_id>  (324) 
17996

>  <target_id>  (324) 
1

>  <reference_id>  (324) 
116

>  <inspiration_ids>  (324) 
[123, 116]

>  <energy_score>  (324) 
2286.4427206116975

>  <distance_score>  (324) 
3.9265251430049686

>  <path>  (324) 
/opt/xchem-fragalysis-2/maxwin/BulkDock/SCRATCH/511021/C17996-P116/C17996-P116.minimised.mol

>  <scratch_subdir>  (324) 
/opt/xchem-fragalysis-2/maxwin/BulkDock/SCRATCH/511021/C17996-P116

>  <fragmenstein_runtime>  (324) 
16.517096519470215

>  <fragmenstein_outcome>  (324) 
too moved

>  <fragmenstein_mode>  (324) 
expansion

>  <fragmenstein_error>  (324) 


$$$$
C17997-P123
     RDKit          3D

 42 44  0  0  0  0  0  0  0  0999 V2000
   -8.6578  -18.1397   28.0239 O   0  0  0  0  0  0  0  0  0  0  0  0
   -8.0260  -18.9477   28.6458 C   0  0  0  0  0  0  0  0  0  0  0  0
   -8.0583  -20.8629   27.6865 C   0  0  0  0  0  0  0  0  0  0  0  0
   -9.6080  -21.9784   28.2311 C   0  0  0  0  0  0  0  0  0  0  0  0
  -10.8680  -21.7522   28.9124 C   0  0  0  0  0  0  0  0  0  0  0  0
  -11.5385  -22.9515   28.9565 C   0  0  0  0  0  0  0  0  0  0  0  0
  -10.7192  -23.8394   28.3451 N   0  0  0  0  0  0  0  0  0  0  0  0
  -10.8962  -25.2656   28.2106 C   0  0  0  0  0  0  0  0  0  0  0  0
  -10.5297  -26.0093   29.5000 C   0  0  0  0  0  0  0  0  0  0  0  0
  -11.7801  -26.7853   29.8634 C   0  0  0  0  0  0  0  0  0  0  0  0
  -12.4413  -27.0611   28.5206 C   0  0  0  0  0  0  0  0  0  0  0  0
  -12.3011  -25.7290   27.8069 C   0  0  0  0  0  0  0  0  0  0  0  0
   -9.5286  -23.3186   27.9945 N   0  0  0  0  0  0  0  0  0  0  0  0
   -6.8750  -18.7105   30.2506 N   0  0  0  0  0  0  0  0  0  0  0  0
   -6.3315  -17.2558   31.1597 C   0  0  0  0  0  0  0  0  0  0  0  0
   -5.7110  -15.9132   30.0797 C   0  0  0  0  0  0  0  0  0  0  0  0
   -6.0315  -14.1498   30.3092 C   0  0  0  0  0  0  0  0  0  0  0  0
   -6.8913  -13.6350   31.1786 N   0  0  0  0  0  0  0  0  0  0  0  0
   -6.4173  -12.1786   31.6733 C   0  0  0  0  0  0  0  0  0  0  0  0
   -5.2672  -11.9854   30.9202 C   0  0  0  0  0  0  0  0  0  0  0  0
   -5.1173  -13.0544   30.0648 N   0  0  0  0  0  0  0  0  0  0  0  0
   -7.6227  -21.8907   27.9049 H   0  0  0  0  0  0  0  0  0  0  0  0
   -6.9781  -20.9087   27.6697 H   0  0  0  0  0  0  0  0  0  0  0  0
  -11.2488  -20.8781   29.3907 H   0  0  0  0  0  0  0  0  0  0  0  0
  -12.4795  -23.2312   29.4097 H   0  0  0  0  0  0  0  0  0  0  0  0
  -10.2128  -25.5925   27.4212 H   0  0  0  0  0  0  0  0  0  0  0  0
  -10.2106  -25.3580   30.3209 H   0  0  0  0  0  0  0  0  0  0  0  0
   -9.7049  -26.6951   29.2943 H   0  0  0  0  0  0  0  0  0  0  0  0
  -12.4019  -26.1385   30.4849 H   0  0  0  0  0  0  0  0  0  0  0  0
  -11.5722  -27.6852   30.4413 H   0  0  0  0  0  0  0  0  0  0  0  0
  -11.9033  -27.8351   27.9690 H   0  0  0  0  0  0  0  0  0  0  0  0
  -13.4773  -27.3916   28.5931 H   0  0  0  0  0  0  0  0  0  0  0  0
  -13.0864  -25.0423   28.1393 H   0  0  0  0  0  0  0  0  0  0  0  0
  -12.3985  -25.8347   26.7215 H   0  0  0  0  0  0  0  0  0  0  0  0
   -6.5280  -19.6030   30.6167 H   0  0  0  0  0  0  0  0  0  0  0  0
   -6.9713  -17.4266   32.0852 H   0  0  0  0  0  0  0  0  0  0  0  0
   -5.5649  -17.2582   31.9806 H   0  0  0  0  0  0  0  0  0  0  0  0
   -6.1680  -16.0357   29.1092 H   0  0  0  0  0  0  0  0  0  0  0  0
   -4.7000  -16.1669   29.8076 H   0  0  0  0  0  0  0  0  0  0  0  0
   -7.0004  -11.6030   32.3928 H   0  0  0  0  0  0  0  0  0  0  0  0
   -4.3955  -11.4144   31.0703 H   0  0  0  0  0  0  0  0  0  0  0  0
   -4.1769  -13.1635   29.7488 H   0  0  0  0  0  0  0  0  0  0  0  0
  1  2  2  0
  2  3  1  0
  3  4  1  0
  4  5  1  0
  5  6  2  0
  6  7  1  0
  7  8  1  0
  8  9  1  0
  9 10  1  0
 10 11  1  0
 11 12  1  0
  7 13  1  0
  2 14  1  0
 14 15  1  0
 15 16  1  0
 16 17  1  0
 17 18  2  0
 18 19  1  0
 19 20  2  0
 20 21  1  0
 13  4  2  0
 21 17  1  0
 12  8  1  0
  3 22  1  0
  3 23  1  0
  5 24  1  0
  6 25  1  0
  8 26  1  0
  9 27  1  0
  9 28  1  0
 10 29  1  0
 10 30  1  0
 11 31  1  0
 11 32  1  0
 12 33  1  0
 12 34  1  0
 14 35  1  0
 15 36  1  0
 15 37  1  0
 16 38  1  0
 16 39  1  0
 19 40  1  0
 20 41  1  0
 21 42  1  0
M  END
>  <Energy>  (325) 
514.69361675488597

>  <compound_id>  (325) 
17997

>  <target_id>  (325) 
1

>  <reference_id>  (325) 
123

>  <inspiration_ids>  (325) 
[123, 116]

>  <energy_score>  (325) 
464.8720580822894

>  <distance_score>  (325) 
5.138843963589997

>  <path>  (325) 
/opt/xchem-fragalysis-2/maxwin/BulkDock/SCRATCH/511021/C17997-P123/C17997-P123.minimised.mol

>  <scratch_subdir>  (325) 
/opt/xchem-fragalysis-2/maxwin/BulkDock/SCRATCH/511021/C17997-P123

>  <fragmenstein_runtime>  (325) 
14.7843496799469

>  <fragmenstein_outcome>  (325) 
too moved

>  <fragmenstein_mode>  (325) 
expansion

>  <fragmenstein_error>  (325) 


$$$$
C17997-P116
     RDKit          3D

 42 44  0  0  0  0  0  0  0  0999 V2000
   -8.8281  -17.4637   27.6676 O   0  0  0  0  0  0  0  0  0  0  0  0
   -8.3419  -18.3269   28.3718 C   0  0  0  0  0  0  0  0  0  0  0  0
   -9.5394  -20.0558   28.3755 C   0  0  0  0  0  0  0  0  0  0  0  0
  -10.7470  -21.2389   29.7798 C   0  0  0  0  0  0  0  0  0  0  0  0
  -11.7058  -22.1716   29.5315 C   0  0  0  0  0  0  0  0  0  0  0  0
  -12.2774  -22.6825   30.8362 C   0  0  0  0  0  0  0  0  0  0  0  0
  -11.6642  -23.5579   32.4331 N   0  0  0  0  0  0  0  0  0  0  0  0
  -12.9590  -24.5039   34.0547 C   0  0  0  0  0  0  0  0  0  0  0  0
  -12.6879  -23.7658   36.0005 C   0  0  0  0  0  0  0  0  0  0  0  0
  -13.8128  -22.3866   36.4751 C   0  0  0  0  0  0  0  0  0  0  0  0
  -15.1654  -22.4688   35.4294 C   0  0  0  0  0  0  0  0  0  0  0  0
  -14.8602  -23.4252   33.9743 C   0  0  0  0  0  0  0  0  0  0  0  0
  -11.1223  -21.9293   31.4401 N   0  0  0  0  0  0  0  0  0  0  0  0
   -6.6596  -18.0860   29.2050 N   0  0  0  0  0  0  0  0  0  0  0  0
   -5.5288  -16.6272   29.2910 C   0  0  0  0  0  0  0  0  0  0  0  0
   -3.8939  -16.7392   28.1960 C   0  0  0  0  0  0  0  0  0  0  0  0
   -2.4744  -15.5062   28.1388 C   0  0  0  0  0  0  0  0  0  0  0  0
   -2.2467  -14.6493   27.1331 N   0  0  0  0  0  0  0  0  0  0  0  0
   -1.4363  -13.6112   27.5723 C   0  0  0  0  0  0  0  0  0  0  0  0
   -0.9378  -13.9303   28.7938 C   0  0  0  0  0  0  0  0  0  0  0  0
   -1.5393  -15.1227   29.1125 N   0  0  0  0  0  0  0  0  0  0  0  0
   -8.4989  -20.7395   27.8609 H   0  0  0  0  0  0  0  0  0  0  0  0
   -9.9346  -20.7205   27.5502 H   0  0  0  0  0  0  0  0  0  0  0  0
  -12.1925  -22.3292   28.5801 H   0  0  0  0  0  0  0  0  0  0  0  0
  -13.2085  -23.1608   30.5518 H   0  0  0  0  0  0  0  0  0  0  0  0
  -13.5579  -25.6119   34.1162 H   0  0  0  0  0  0  0  0  0  0  0  0
  -11.7693  -23.2389   36.2776 H   0  0  0  0  0  0  0  0  0  0  0  0
  -12.8448  -24.8123   36.1805 H   0  0  0  0  0  0  0  0  0  0  0  0
  -13.2483  -21.4761   36.7269 H   0  0  0  0  0  0  0  0  0  0  0  0
  -14.1573  -22.4350   37.5195 H   0  0  0  0  0  0  0  0  0  0  0  0
  -16.0497  -22.8838   35.9296 H   0  0  0  0  0  0  0  0  0  0  0  0
  -15.4392  -21.4440   35.1458 H   0  0  0  0  0  0  0  0  0  0  0  0
  -14.9929  -22.4751   33.4208 H   0  0  0  0  0  0  0  0  0  0  0  0
  -15.6431  -23.8565   33.2927 H   0  0  0  0  0  0  0  0  0  0  0  0
   -6.4889  -18.8331   29.7814 H   0  0  0  0  0  0  0  0  0  0  0  0
   -5.2673  -16.4702   30.2858 H   0  0  0  0  0  0  0  0  0  0  0  0
   -6.1898  -15.7697   29.1244 H   0  0  0  0  0  0  0  0  0  0  0  0
   -4.1596  -17.0814   27.2601 H   0  0  0  0  0  0  0  0  0  0  0  0
   -3.3327  -17.6605   28.1470 H   0  0  0  0  0  0  0  0  0  0  0  0
   -1.2261  -12.7552   26.9424 H   0  0  0  0  0  0  0  0  0  0  0  0
   -0.2367  -13.4408   29.4535 H   0  0  0  0  0  0  0  0  0  0  0  0
   -1.3663  -15.5416   30.0082 H   0  0  0  0  0  0  0  0  0  0  0  0
  1  2  2  0
  2  3  1  0
  3  4  1  0
  4  5  1  0
  5  6  2  0
  6  7  1  0
  7  8  1  0
  8  9  1  0
  9 10  1  0
 10 11  1  0
 11 12  1  0
  7 13  1  0
  2 14  1  0
 14 15  1  0
 15 16  1  0
 16 17  1  0
 17 18  2  0
 18 19  1  0
 19 20  2  0
 20 21  1  0
 13  4  2  0
 21 17  1  0
 12  8  1  0
  3 22  1  0
  3 23  1  0
  5 24  1  0
  6 25  1  0
  8 26  1  0
  9 27  1  0
  9 28  1  0
 10 29  1  0
 10 30  1  0
 11 31  1  0
 11 32  1  0
 12 33  1  0
 12 34  1  0
 14 35  1  0
 15 36  1  0
 15 37  1  0
 16 38  1  0
 16 39  1  0
 19 40  1  0
 20 41  1  0
 21 42  1  0
M  END
>  <Energy>  (326) 
1817.0208160095822

>  <compound_id>  (326) 
17997

>  <target_id>  (326) 
1

>  <reference_id>  (326) 
116

>  <inspiration_ids>  (326) 
[123, 116]

>  <energy_score>  (326) 
1767.19925733699

>  <distance_score>  (326) 
2.560147702162547

>  <path>  (326) 
/opt/xchem-fragalysis-2/maxwin/BulkDock/SCRATCH/511021/C17997-P116/C17997-P116.minimised.mol

>  <scratch_subdir>  (326) 
/opt/xchem-fragalysis-2/maxwin/BulkDock/SCRATCH/511021/C17997-P116

>  <fragmenstein_runtime>  (326) 
13.97544264793396

>  <fragmenstein_outcome>  (326) 
too moved

>  <fragmenstein_mode>  (326) 
expansion

>  <fragmenstein_error>  (326) 


$$$$
C17998-P123
     RDKit          3D

 42 44  0  0  0  0  0  0  0  0999 V2000
   -5.8061  -18.7449   32.4890 C   0  0  0  0  0  0  0  0  0  0  0  0
   -5.9292  -17.1606   32.0242 C   0  0  0  0  0  0  0  0  0  0  0  0
   -6.5972  -16.3990   33.2683 C   0  0  0  0  0  0  0  0  0  0  0  0
   -7.5791  -16.8157   34.2441 N   0  0  0  0  0  0  0  0  0  0  0  0
   -7.7772  -16.4124   35.6221 C   0  0  0  0  0  0  0  0  0  0  0  0
   -7.1253  -15.6937   36.3284 O   0  0  0  0  0  0  0  0  0  0  0  0
   -9.0625  -16.9085   36.1876 C   0  0  0  0  0  0  0  0  0  0  0  0
  -10.2653  -17.0094   35.4433 C   0  0  0  0  0  0  0  0  0  0  0  0
  -11.2891  -17.1586   36.3377 C   0  0  0  0  0  0  0  0  0  0  0  0
  -10.7057  -17.0153   37.5581 N   0  0  0  0  0  0  0  0  0  0  0  0
  -11.3701  -16.9695   38.8434 C   0  0  0  0  0  0  0  0  0  0  0  0
  -10.8141  -15.9026   39.7954 C   0  0  0  0  0  0  0  0  0  0  0  0
  -11.9445  -15.5765   40.7725 C   0  0  0  0  0  0  0  0  0  0  0  0
  -13.1747  -16.3225   40.2687 C   0  0  0  0  0  0  0  0  0  0  0  0
  -12.8655  -16.6420   38.8156 C   0  0  0  0  0  0  0  0  0  0  0  0
   -9.3522  -16.9434   37.5021 N   0  0  0  0  0  0  0  0  0  0  0  0
   -5.2298  -16.2485   30.4130 C   0  0  0  0  0  0  0  0  0  0  0  0
   -5.1375  -16.6679   29.2244 N   0  0  0  0  0  0  0  0  0  0  0  0
   -3.6670  -16.2617   28.5261 C   0  0  0  0  0  0  0  0  0  0  0  0
   -2.9452  -15.2691   29.1705 C   0  0  0  0  0  0  0  0  0  0  0  0
   -3.4359  -15.7922   30.2473 N   0  0  0  0  0  0  0  0  0  0  0  0
   -4.8346  -19.1412   32.6696 H   0  0  0  0  0  0  0  0  0  0  0  0
   -5.8146  -19.5866   31.7674 H   0  0  0  0  0  0  0  0  0  0  0  0
   -6.5549  -18.9718   33.2738 H   0  0  0  0  0  0  0  0  0  0  0  0
   -6.7619  -17.5999   31.4923 H   0  0  0  0  0  0  0  0  0  0  0  0
   -7.2869  -15.6411   32.9169 H   0  0  0  0  0  0  0  0  0  0  0  0
   -5.8621  -15.8255   33.7900 H   0  0  0  0  0  0  0  0  0  0  0  0
   -8.2832  -17.4980   33.9955 H   0  0  0  0  0  0  0  0  0  0  0  0
  -10.3561  -16.8622   34.3891 H   0  0  0  0  0  0  0  0  0  0  0  0
  -12.3560  -17.2503   36.1948 H   0  0  0  0  0  0  0  0  0  0  0  0
  -11.2372  -17.9691   39.2589 H   0  0  0  0  0  0  0  0  0  0  0  0
  -10.5331  -14.9928   39.2495 H   0  0  0  0  0  0  0  0  0  0  0  0
   -9.9175  -16.2525   40.3182 H   0  0  0  0  0  0  0  0  0  0  0  0
  -12.1257  -14.4959   40.7878 H   0  0  0  0  0  0  0  0  0  0  0  0
  -11.6947  -15.8797   41.7945 H   0  0  0  0  0  0  0  0  0  0  0  0
  -13.3040  -17.2518   40.8363 H   0  0  0  0  0  0  0  0  0  0  0  0
  -14.0904  -15.7343   40.3793 H   0  0  0  0  0  0  0  0  0  0  0  0
  -13.4707  -17.4762   38.4462 H   0  0  0  0  0  0  0  0  0  0  0  0
  -13.0699  -15.7669   38.1861 H   0  0  0  0  0  0  0  0  0  0  0  0
   -3.3540  -16.8280   27.6315 H   0  0  0  0  0  0  0  0  0  0  0  0
   -1.9998  -14.8493   28.9436 H   0  0  0  0  0  0  0  0  0  0  0  0
   -2.8644  -15.9453   31.0806 H   0  0  0  0  0  0  0  0  0  0  0  0
  1  2  1  0
  2  3  1  0
  3  4  1  0
  4  5  1  0
  5  6  2  0
  5  7  1  0
  7  8  1  0
  8  9  2  0
  9 10  1  0
 10 11  1  0
 11 12  1  0
 12 13  1  0
 13 14  1  0
 14 15  1  0
 10 16  1  0
  2 17  1  0
 17 18  2  0
 18 19  1  0
 19 20  2  0
 20 21  1  0
 16  7  2  0
 21 17  1  0
 15 11  1  0
  1 22  1  0
  1 23  1  0
  1 24  1  0
  2 25  1  0
  3 26  1  0
  3 27  1  0
  4 28  1  0
  8 29  1  0
  9 30  1  0
 11 31  1  0
 12 32  1  0
 12 33  1  0
 13 34  1  0
 13 35  1  0
 14 36  1  0
 14 37  1  0
 15 38  1  0
 15 39  1  0
 19 40  1  0
 20 41  1  0
 21 42  1  0
M  END
>  <Energy>  (327) 
324.53468490645173

>  <compound_id>  (327) 
17998

>  <target_id>  (327) 
1

>  <reference_id>  (327) 
123

>  <inspiration_ids>  (327) 
[123, 116]

>  <energy_score>  (327) 
254.1885292808763

>  <distance_score>  (327) 
6.848600664266845

>  <path>  (327) 
/opt/xchem-fragalysis-2/maxwin/BulkDock/SCRATCH/511021/C17998-P123/C17998-P123.minimised.mol

>  <scratch_subdir>  (327) 
/opt/xchem-fragalysis-2/maxwin/BulkDock/SCRATCH/511021/C17998-P123

>  <fragmenstein_runtime>  (327) 
28.663119792938232

>  <fragmenstein_outcome>  (327) 
too moved

>  <fragmenstein_mode>  (327) 
expansion

>  <fragmenstein_error>  (327) 


$$$$
C17998-P116
     RDKit          3D

 42 44  0  0  0  0  0  0  0  0999 V2000
   -6.8892  -17.6312   28.5511 C   0  0  0  0  0  0  0  0  0  0  0  0
   -6.2437  -17.2945   30.3173 C   0  0  0  0  0  0  0  0  0  0  0  0
   -6.6208  -17.9597   32.3381 C   0  0  0  0  0  0  0  0  0  0  0  0
   -7.5278  -19.4899   33.1028 N   0  0  0  0  0  0  0  0  0  0  0  0
   -6.9680  -21.2214   33.4375 C   0  0  0  0  0  0  0  0  0  0  0  0
   -5.8195  -21.5697   33.2804 O   0  0  0  0  0  0  0  0  0  0  0  0
   -8.1025  -22.8074   33.8937 C   0  0  0  0  0  0  0  0  0  0  0  0
   -9.4878  -23.3196   32.7024 C   0  0  0  0  0  0  0  0  0  0  0  0
  -10.4943  -24.1561   32.5395 C   0  0  0  0  0  0  0  0  0  0  0  0
   -9.8370  -25.2231   33.0254 N   0  0  0  0  0  0  0  0  0  0  0  0
  -10.9216  -26.7349   33.2704 C   0  0  0  0  0  0  0  0  0  0  0  0
  -11.7923  -27.5949   34.6762 C   0  0  0  0  0  0  0  0  0  0  0  0
  -11.6155  -29.0927   34.5985 C   0  0  0  0  0  0  0  0  0  0  0  0
  -11.6592  -29.3804   33.1232 C   0  0  0  0  0  0  0  0  0  0  0  0
  -11.1650  -28.1514   32.2242 C   0  0  0  0  0  0  0  0  0  0  0  0
   -8.1985  -24.4035   33.2825 N   0  0  0  0  0  0  0  0  0  0  0  0
   -4.7274  -16.4447   29.5329 C   0  0  0  0  0  0  0  0  0  0  0  0
   -3.6010  -15.3323   29.8193 N   0  0  0  0  0  0  0  0  0  0  0  0
   -2.4209  -15.2457   28.7394 C   0  0  0  0  0  0  0  0  0  0  0  0
   -2.5495  -16.2917   27.8506 C   0  0  0  0  0  0  0  0  0  0  0  0
   -3.8761  -16.9621   28.1038 N   0  0  0  0  0  0  0  0  0  0  0  0
   -6.0603  -18.1372   28.0491 H   0  0  0  0  0  0  0  0  0  0  0  0
   -7.3704  -16.6980   28.1962 H   0  0  0  0  0  0  0  0  0  0  0  0
   -7.9221  -18.1253   28.4773 H   0  0  0  0  0  0  0  0  0  0  0  0
   -6.4616  -18.3478   30.1010 H   0  0  0  0  0  0  0  0  0  0  0  0
   -7.3158  -17.2223   32.7580 H   0  0  0  0  0  0  0  0  0  0  0  0
   -5.7626  -17.8263   33.0334 H   0  0  0  0  0  0  0  0  0  0  0  0
   -8.5310  -19.4415   33.2182 H   0  0  0  0  0  0  0  0  0  0  0  0
   -9.2075  -23.9330   31.8394 H   0  0  0  0  0  0  0  0  0  0  0  0
  -11.2930  -24.0299   31.8760 H   0  0  0  0  0  0  0  0  0  0  0  0
  -11.7268  -26.2666   32.8780 H   0  0  0  0  0  0  0  0  0  0  0  0
  -11.6232  -27.2937   35.7058 H   0  0  0  0  0  0  0  0  0  0  0  0
  -12.8666  -27.4059   34.5745 H   0  0  0  0  0  0  0  0  0  0  0  0
  -10.6785  -29.4269   35.0575 H   0  0  0  0  0  0  0  0  0  0  0  0
  -12.4138  -29.6205   35.1293 H   0  0  0  0  0  0  0  0  0  0  0  0
  -12.7138  -29.5931   32.9428 H   0  0  0  0  0  0  0  0  0  0  0  0
  -11.1048  -30.2978   32.9370 H   0  0  0  0  0  0  0  0  0  0  0  0
  -10.3707  -28.3481   31.5422 H   0  0  0  0  0  0  0  0  0  0  0  0
  -11.8806  -28.0249   31.4370 H   0  0  0  0  0  0  0  0  0  0  0  0
   -1.6455  -14.5041   28.8843 H   0  0  0  0  0  0  0  0  0  0  0  0
   -1.9548  -16.7077   27.0518 H   0  0  0  0  0  0  0  0  0  0  0  0
   -4.1264  -17.8070   27.6103 H   0  0  0  0  0  0  0  0  0  0  0  0
  1  2  1  0
  2  3  1  0
  3  4  1  0
  4  5  1  0
  5  6  2  0
  5  7  1  0
  7  8  1  0
  8  9  2  0
  9 10  1  0
 10 11  1  0
 11 12  1  0
 12 13  1  0
 13 14  1  0
 14 15  1  0
 10 16  1  0
  2 17  1  0
 17 18  2  0
 18 19  1  0
 19 20  2  0
 20 21  1  0
 16  7  2  0
 21 17  1  0
 15 11  1  0
  1 22  1  0
  1 23  1  0
  1 24  1  0
  2 25  1  0
  3 26  1  0
  3 27  1  0
  4 28  1  0
  8 29  1  0
  9 30  1  0
 11 31  1  0
 12 32  1  0
 12 33  1  0
 13 34  1  0
 13 35  1  0
 14 36  1  0
 14 37  1  0
 15 38  1  0
 15 39  1  0
 19 40  1  0
 20 41  1  0
 21 42  1  0
M  END
>  <Energy>  (328) 
1198.459121983019

>  <compound_id>  (328) 
17998

>  <target_id>  (328) 
1

>  <reference_id>  (328) 
116

>  <inspiration_ids>  (328) 
[123, 116]

>  <energy_score>  (328) 
1128.112966357438

>  <distance_score>  (328) 
3.7598224511639127

>  <path>  (328) 
/opt/xchem-fragalysis-2/maxwin/BulkDock/SCRATCH/511021/C17998-P116/C17998-P116.minimised.mol

>  <scratch_subdir>  (328) 
/opt/xchem-fragalysis-2/maxwin/BulkDock/SCRATCH/511021/C17998-P116

>  <fragmenstein_runtime>  (328) 
20.717798471450806

>  <fragmenstein_outcome>  (328) 
too moved

>  <fragmenstein_mode>  (328) 
expansion

>  <fragmenstein_error>  (328) 


$$$$
C48747-P123
     RDKit          3D

 45 47  0  0  0  0  0  0  0  0999 V2000
   -7.1057  -18.3102   33.3877 C   0  0  0  0  0  0  0  0  0  0  0  0
   -8.1679  -18.8767   34.1202 N   0  0  0  0  0  0  0  0  0  0  0  0
   -8.5680  -17.2078   34.3194 C   0  0  0  0  0  0  0  0  0  0  0  0
   -7.7840  -15.8930   33.4127 C   0  0  0  0  0  0  0  0  0  0  0  0
   -8.5295  -14.6310   32.3137 C   0  0  0  0  0  0  0  0  0  0  0  0
   -9.8414  -14.0712   32.2233 C   0  0  0  0  0  0  0  0  0  0  0  0
   -9.7801  -13.0253   31.3433 N   0  0  0  0  0  0  0  0  0  0  0  0
   -8.4851  -12.8770   30.9741 C   0  0  0  0  0  0  0  0  0  0  0  0
   -7.7278  -13.7795   31.5393 N   0  0  0  0  0  0  0  0  0  0  0  0
   -8.9039  -20.0285   33.2692 C   0  0  0  0  0  0  0  0  0  0  0  0
   -9.8564  -19.9404   32.5121 O   0  0  0  0  0  0  0  0  0  0  0  0
   -8.2376  -21.7226   33.2297 C   0  0  0  0  0  0  0  0  0  0  0  0
   -9.4841  -23.0799   32.7263 C   0  0  0  0  0  0  0  0  0  0  0  0
   -9.5435  -24.4920   32.7733 C   0  0  0  0  0  0  0  0  0  0  0  0
  -10.8980  -24.7715   32.6434 C   0  0  0  0  0  0  0  0  0  0  0  0
  -11.5127  -23.5598   32.5555 N   0  0  0  0  0  0  0  0  0  0  0  0
  -12.8412  -23.1334   32.9176 C   0  0  0  0  0  0  0  0  0  0  0  0
  -12.9525  -22.2509   34.1662 C   0  0  0  0  0  0  0  0  0  0  0  0
  -14.3725  -21.7010   34.1082 C   0  0  0  0  0  0  0  0  0  0  0  0
  -14.7019  -21.6140   32.6262 C   0  0  0  0  0  0  0  0  0  0  0  0
  -13.4698  -22.1828   31.9111 C   0  0  0  0  0  0  0  0  0  0  0  0
  -10.6413  -22.6330   32.1809 N   0  0  0  0  0  0  0  0  0  0  0  0
   -7.1973  -17.8451   32.4182 H   0  0  0  0  0  0  0  0  0  0  0  0
   -6.5723  -17.6609   34.0740 H   0  0  0  0  0  0  0  0  0  0  0  0
   -6.4472  -19.1693   33.2268 H   0  0  0  0  0  0  0  0  0  0  0  0
   -8.3358  -17.0307   35.3791 H   0  0  0  0  0  0  0  0  0  0  0  0
   -9.6466  -17.1383   34.1929 H   0  0  0  0  0  0  0  0  0  0  0  0
   -6.8243  -16.1612   32.9692 H   0  0  0  0  0  0  0  0  0  0  0  0
   -7.2659  -15.3669   34.2394 H   0  0  0  0  0  0  0  0  0  0  0  0
  -10.7652  -14.3674   32.7075 H   0  0  0  0  0  0  0  0  0  0  0  0
  -10.5568  -12.4534   31.0432 H   0  0  0  0  0  0  0  0  0  0  0  0
   -8.1505  -12.1037   30.3061 H   0  0  0  0  0  0  0  0  0  0  0  0
   -7.9872  -22.3704   34.0040 H   0  0  0  0  0  0  0  0  0  0  0  0
   -7.3720  -21.6110   32.5877 H   0  0  0  0  0  0  0  0  0  0  0  0
   -8.7902  -25.2295   32.9821 H   0  0  0  0  0  0  0  0  0  0  0  0
  -11.4471  -25.6945   32.6997 H   0  0  0  0  0  0  0  0  0  0  0  0
  -13.4207  -24.0240   33.0923 H   0  0  0  0  0  0  0  0  0  0  0  0
  -12.2734  -21.3961   34.1052 H   0  0  0  0  0  0  0  0  0  0  0  0
  -12.7345  -22.7791   35.0905 H   0  0  0  0  0  0  0  0  0  0  0  0
  -15.0797  -22.3816   34.5909 H   0  0  0  0  0  0  0  0  0  0  0  0
  -14.4459  -20.7258   34.5981 H   0  0  0  0  0  0  0  0  0  0  0  0
  -15.6106  -22.1864   32.4289 H   0  0  0  0  0  0  0  0  0  0  0  0
  -14.9461  -20.5943   32.3289 H   0  0  0  0  0  0  0  0  0  0  0  0
  -13.6607  -22.6011   30.9223 H   0  0  0  0  0  0  0  0  0  0  0  0
  -12.7365  -21.3952   31.7417 H   0  0  0  0  0  0  0  0  0  0  0  0
  1  2  1  0
  2  3  1  0
  3  4  1  0
  4  5  1  0
  5  6  2  0
  6  7  1  0
  7  8  1  0
  8  9  2  0
  2 10  1  0
 10 11  2  0
 10 12  1  0
 12 13  1  0
 13 14  1  0
 14 15  2  0
 15 16  1  0
 16 17  1  0
 17 18  1  0
 18 19  1  0
 19 20  1  0
 20 21  1  0
 16 22  1  0
  9  5  1  0
 22 13  2  0
 21 17  1  0
  1 23  1  0
  1 24  1  0
  1 25  1  0
  3 26  1  0
  3 27  1  0
  4 28  1  0
  4 29  1  0
  6 30  1  0
  7 31  1  0
  8 32  1  0
 12 33  1  0
 12 34  1  0
 14 35  1  0
 15 36  1  0
 17 37  1  0
 18 38  1  0
 18 39  1  0
 19 40  1  0
 19 41  1  0
 20 42  1  0
 20 43  1  0
 21 44  1  0
 21 45  1  0
M  END
>  <Energy>  (329) 
313.58229583422423

>  <compound_id>  (329) 
48747

>  <target_id>  (329) 
1

>  <reference_id>  (329) 
123

>  <inspiration_ids>  (329) 
[123, 116]

>  <energy_score>  (329) 
245.06998218439878

>  <distance_score>  (329) 
6.433961749094493

>  <path>  (329) 
/opt/xchem-fragalysis-2/maxwin/BulkDock/SCRATCH/511021/C48747-P123/C48747-P123.minimised.mol

>  <scratch_subdir>  (329) 
/opt/xchem-fragalysis-2/maxwin/BulkDock/SCRATCH/511021/C48747-P123

>  <fragmenstein_runtime>  (329) 
22.809622526168823

>  <fragmenstein_outcome>  (329) 
too moved

>  <fragmenstein_mode>  (329) 
expansion

>  <fragmenstein_error>  (329) 


$$$$
C48747-P116
     RDKit          3D

 45 47  0  0  0  0  0  0  0  0999 V2000
   -5.9772  -20.1105   33.6057 C   0  0  0  0  0  0  0  0  0  0  0  0
   -6.4054  -20.7430   34.8353 N   0  0  0  0  0  0  0  0  0  0  0  0
   -5.7152  -19.4786   35.4593 C   0  0  0  0  0  0  0  0  0  0  0  0
   -4.1547  -19.3423   35.5176 C   0  0  0  0  0  0  0  0  0  0  0  0
   -3.4153  -18.3247   34.6879 C   0  0  0  0  0  0  0  0  0  0  0  0
   -2.6714  -18.5101   33.5539 C   0  0  0  0  0  0  0  0  0  0  0  0
   -1.9082  -17.3913   33.3762 N   0  0  0  0  0  0  0  0  0  0  0  0
   -2.3104  -16.4976   34.3046 C   0  0  0  0  0  0  0  0  0  0  0  0
   -3.1736  -17.0560   35.1201 N   0  0  0  0  0  0  0  0  0  0  0  0
   -7.8148  -21.1108   34.7457 C   0  0  0  0  0  0  0  0  0  0  0  0
   -8.7973  -20.4934   35.0491 O   0  0  0  0  0  0  0  0  0  0  0  0
   -7.8733  -22.6304   34.1720 C   0  0  0  0  0  0  0  0  0  0  0  0
   -9.0887  -23.6908   33.0815 C   0  0  0  0  0  0  0  0  0  0  0  0
   -8.3838  -24.7372   32.7636 C   0  0  0  0  0  0  0  0  0  0  0  0
   -9.0797  -25.5602   31.9718 C   0  0  0  0  0  0  0  0  0  0  0  0
  -10.1171  -25.6104   32.9477 N   0  0  0  0  0  0  0  0  0  0  0  0
  -11.2212  -26.9772   33.1459 C   0  0  0  0  0  0  0  0  0  0  0  0
  -11.1889  -28.3332   32.1811 C   0  0  0  0  0  0  0  0  0  0  0  0
  -11.3761  -29.5929   33.1223 C   0  0  0  0  0  0  0  0  0  0  0  0
  -12.4036  -29.1347   34.1073 C   0  0  0  0  0  0  0  0  0  0  0  0
  -11.9493  -27.7365   34.5188 C   0  0  0  0  0  0  0  0  0  0  0  0
  -10.3334  -24.1583   32.7457 N   0  0  0  0  0  0  0  0  0  0  0  0
   -6.4672  -20.6731   32.8140 H   0  0  0  0  0  0  0  0  0  0  0  0
   -4.9209  -20.3045   33.4174 H   0  0  0  0  0  0  0  0  0  0  0  0
   -6.3510  -19.0929   33.4181 H   0  0  0  0  0  0  0  0  0  0  0  0
   -6.0000  -19.6411   36.5121 H   0  0  0  0  0  0  0  0  0  0  0  0
   -6.2448  -18.5328   35.2511 H   0  0  0  0  0  0  0  0  0  0  0  0
   -3.7147  -20.3182   35.3160 H   0  0  0  0  0  0  0  0  0  0  0  0
   -3.8972  -19.1121   36.5606 H   0  0  0  0  0  0  0  0  0  0  0  0
   -2.6010  -19.3705   32.9137 H   0  0  0  0  0  0  0  0  0  0  0  0
   -1.1910  -17.2409   32.6799 H   0  0  0  0  0  0  0  0  0  0  0  0
   -1.9331  -15.4855   34.3659 H   0  0  0  0  0  0  0  0  0  0  0  0
   -7.5448  -23.2838   34.9469 H   0  0  0  0  0  0  0  0  0  0  0  0
   -6.8861  -22.7201   33.6637 H   0  0  0  0  0  0  0  0  0  0  0  0
   -7.3063  -24.5480   32.8837 H   0  0  0  0  0  0  0  0  0  0  0  0
   -8.8547  -26.2907   31.2157 H   0  0  0  0  0  0  0  0  0  0  0  0
  -11.9204  -26.4157   32.6993 H   0  0  0  0  0  0  0  0  0  0  0  0
  -10.3963  -28.3387   31.4644 H   0  0  0  0  0  0  0  0  0  0  0  0
  -11.9885  -28.3115   31.4727 H   0  0  0  0  0  0  0  0  0  0  0  0
  -10.4575  -29.8984   33.6380 H   0  0  0  0  0  0  0  0  0  0  0  0
  -11.7006  -30.5301   32.6775 H   0  0  0  0  0  0  0  0  0  0  0  0
  -13.4039  -29.1731   33.6737 H   0  0  0  0  0  0  0  0  0  0  0  0
  -12.4895  -29.7641   34.9714 H   0  0  0  0  0  0  0  0  0  0  0  0
  -11.2793  -27.9151   35.3502 H   0  0  0  0  0  0  0  0  0  0  0  0
  -12.8449  -27.2366   34.8990 H   0  0  0  0  0  0  0  0  0  0  0  0
  1  2  1  0
  2  3  1  0
  3  4  1  0
  4  5  1  0
  5  6  2  0
  6  7  1  0
  7  8  1  0
  8  9  2  0
  2 10  1  0
 10 11  2  0
 10 12  1  0
 12 13  1  0
 13 14  1  0
 14 15  2  0
 15 16  1  0
 16 17  1  0
 17 18  1  0
 18 19  1  0
 19 20  1  0
 20 21  1  0
 16 22  1  0
  9  5  1  0
 22 13  2  0
 21 17  1  0
  1 23  1  0
  1 24  1  0
  1 25  1  0
  3 26  1  0
  3 27  1  0
  4 28  1  0
  4 29  1  0
  6 30  1  0
  7 31  1  0
  8 32  1  0
 12 33  1  0
 12 34  1  0
 14 35  1  0
 15 36  1  0
 17 37  1  0
 18 38  1  0
 18 39  1  0
 19 40  1  0
 19 41  1  0
 20 42  1  0
 20 43  1  0
 21 44  1  0
 21 45  1  0
M  END
>  <Energy>  (330) 
385.36859028465335

>  <compound_id>  (330) 
48747

>  <target_id>  (330) 
1

>  <reference_id>  (330) 
116

>  <inspiration_ids>  (330) 
[123, 116]

>  <energy_score>  (330) 
316.8562766348268

>  <distance_score>  (330) 
6.322857117308536

>  <path>  (330) 
/opt/xchem-fragalysis-2/maxwin/BulkDock/SCRATCH/511021/C48747-P116/C48747-P116.minimised.mol

>  <scratch_subdir>  (330) 
/opt/xchem-fragalysis-2/maxwin/BulkDock/SCRATCH/511021/C48747-P116

>  <fragmenstein_runtime>  (330) 
22.942328214645386

>  <fragmenstein_outcome>  (330) 
too moved

>  <fragmenstein_mode>  (330) 
expansion

>  <fragmenstein_error>  (330) 


$$$$
C48749-P123
     RDKit          3D

 41 43  0  0  0  0  0  0  0  0999 V2000
   -2.8090  -17.3002   27.6499 C   0  0  0  0  0  0  0  0  0  0  0  0
   -3.4862  -16.8128   29.3213 N   0  0  0  0  0  0  0  0  0  0  0  0
   -3.1004  -15.3185   28.7293 C   0  0  0  0  0  0  0  0  0  0  0  0
   -2.1245  -14.9950   27.1601 C   0  0  0  0  0  0  0  0  0  0  0  0
   -2.1480  -14.2058   25.7885 C   0  0  0  0  0  0  0  0  0  0  0  0
   -2.3130  -15.2969   24.5059 N   0  0  0  0  0  0  0  0  0  0  0  0
   -2.7242  -16.3366   25.2025 C   0  0  0  0  0  0  0  0  0  0  0  0
   -2.4440  -15.3709   25.9448 N   0  0  0  0  0  0  0  0  0  0  0  0
   -5.2611  -17.7768   29.6650 C   0  0  0  0  0  0  0  0  0  0  0  0
   -6.1579  -17.1977   29.3049 O   0  0  0  0  0  0  0  0  0  0  0  0
   -5.0629  -19.6411   30.8546 N   0  0  0  0  0  0  0  0  0  0  0  0
   -6.2359  -20.7137   31.7495 C   0  0  0  0  0  0  0  0  0  0  0  0
   -6.0570  -19.8642   32.9535 C   0  0  0  0  0  0  0  0  0  0  0  0
   -7.1847  -19.6170   33.8171 C   0  0  0  0  0  0  0  0  0  0  0  0
   -8.0237  -20.6004   33.6706 N   0  0  0  0  0  0  0  0  0  0  0  0
   -7.5162  -21.4803   32.7761 N   0  0  0  0  0  0  0  0  0  0  0  0
   -8.4835  -23.0665   32.9594 C   0  0  0  0  0  0  0  0  0  0  0  0
   -8.4872  -24.6138   32.4140 C   0  0  0  0  0  0  0  0  0  0  0  0
   -9.4726  -24.9971   31.3195 C   0  0  0  0  0  0  0  0  0  0  0  0
  -10.6734  -24.1521   31.5626 C   0  0  0  0  0  0  0  0  0  0  0  0
  -10.2195  -23.0060   32.4651 C   0  0  0  0  0  0  0  0  0  0  0  0
   -3.6712  -16.9935   27.1745 H   0  0  0  0  0  0  0  0  0  0  0  0
   -2.9314  -18.3119   27.3243 H   0  0  0  0  0  0  0  0  0  0  0  0
   -1.7779  -17.1019   27.3663 H   0  0  0  0  0  0  0  0  0  0  0  0
   -3.1768  -14.5767   29.5566 H   0  0  0  0  0  0  0  0  0  0  0  0
   -2.0859  -15.1105   29.1720 H   0  0  0  0  0  0  0  0  0  0  0  0
   -2.3368  -13.1596   25.5065 H   0  0  0  0  0  0  0  0  0  0  0  0
   -1.6032  -15.2483   23.7947 H   0  0  0  0  0  0  0  0  0  0  0  0
   -2.4669  -17.3771   25.3404 H   0  0  0  0  0  0  0  0  0  0  0  0
   -4.0806  -19.9149   31.1010 H   0  0  0  0  0  0  0  0  0  0  0  0
   -5.4815  -19.0103   32.6815 H   0  0  0  0  0  0  0  0  0  0  0  0
   -7.4068  -18.7720   34.4571 H   0  0  0  0  0  0  0  0  0  0  0  0
   -8.3035  -23.1158   34.0116 H   0  0  0  0  0  0  0  0  0  0  0  0
   -7.5480  -25.0867   32.1976 H   0  0  0  0  0  0  0  0  0  0  0  0
   -8.8922  -25.1717   33.2767 H   0  0  0  0  0  0  0  0  0  0  0  0
   -9.0767  -24.8686   30.3115 H   0  0  0  0  0  0  0  0  0  0  0  0
   -9.7332  -26.0599   31.3858 H   0  0  0  0  0  0  0  0  0  0  0  0
  -11.1227  -23.7905   30.6317 H   0  0  0  0  0  0  0  0  0  0  0  0
  -11.4545  -24.7391   32.0631 H   0  0  0  0  0  0  0  0  0  0  0  0
  -10.4953  -22.0405   32.0142 H   0  0  0  0  0  0  0  0  0  0  0  0
  -10.8592  -23.1919   33.3376 H   0  0  0  0  0  0  0  0  0  0  0  0
  1  2  1  0
  2  3  1  0
  3  4  1  0
  4  5  2  0
  5  6  1  0
  6  7  1  0
  7  8  2  0
  2  9  1  0
  9 10  2  0
  9 11  1  0
 11 12  1  0
 12 13  2  0
 13 14  1  0
 14 15  2  0
 15 16  1  0
 16 17  1  0
 17 18  1  0
 18 19  1  0
 19 20  1  0
 20 21  1  0
  8  4  1  0
 16 12  1  0
 21 17  1  0
  1 22  1  0
  1 23  1  0
  1 24  1  0
  3 25  1  0
  3 26  1  0
  5 27  1  0
  6 28  1  0
  7 29  1  0
 11 30  1  0
 13 31  1  0
 14 32  1  0
 17 33  1  0
 18 34  1  0
 18 35  1  0
 19 36  1  0
 19 37  1  0
 20 38  1  0
 20 39  1  0
 21 40  1  0
 21 41  1  0
M  END
>  <Energy>  (331) 
1379.7619260927474

>  <compound_id>  (331) 
48749

>  <target_id>  (331) 
1

>  <reference_id>  (331) 
123

>  <inspiration_ids>  (331) 
[123, 116]

>  <energy_score>  (331) 
1335.0081464121938

>  <distance_score>  (331) 
5.346353764742637

>  <path>  (331) 
/opt/xchem-fragalysis-2/maxwin/BulkDock/SCRATCH/511021/C48749-P123/C48749-P123.minimised.mol

>  <scratch_subdir>  (331) 
/opt/xchem-fragalysis-2/maxwin/BulkDock/SCRATCH/511021/C48749-P123

>  <fragmenstein_runtime>  (331) 
30.103496313095093

>  <fragmenstein_outcome>  (331) 
too moved

>  <fragmenstein_mode>  (331) 
expansion

>  <fragmenstein_error>  (331) 


$$$$
C48749-P116
     RDKit          3D

 41 43  0  0  0  0  0  0  0  0999 V2000
   -5.7116  -22.1037   36.2106 C   0  0  0  0  0  0  0  0  0  0  0  0
   -6.1387  -21.5432   34.9085 N   0  0  0  0  0  0  0  0  0  0  0  0
   -5.2851  -20.3972   35.3785 C   0  0  0  0  0  0  0  0  0  0  0  0
   -5.4412  -19.1476   34.5838 C   0  0  0  0  0  0  0  0  0  0  0  0
   -6.5805  -18.5349   34.1271 C   0  0  0  0  0  0  0  0  0  0  0  0
   -6.1959  -17.2754   33.8049 N   0  0  0  0  0  0  0  0  0  0  0  0
   -4.8515  -17.1829   34.0093 C   0  0  0  0  0  0  0  0  0  0  0  0
   -4.3567  -18.3015   34.4701 N   0  0  0  0  0  0  0  0  0  0  0  0
   -7.6602  -21.6493   34.7480 C   0  0  0  0  0  0  0  0  0  0  0  0
   -8.4999  -20.8705   35.0475 O   0  0  0  0  0  0  0  0  0  0  0  0
   -7.7714  -23.0035   33.9849 N   0  0  0  0  0  0  0  0  0  0  0  0
   -9.1698  -23.7788   33.1862 C   0  0  0  0  0  0  0  0  0  0  0  0
   -8.4769  -24.8249   32.7140 C   0  0  0  0  0  0  0  0  0  0  0  0
   -9.0179  -25.3038   31.6135 C   0  0  0  0  0  0  0  0  0  0  0  0
  -10.0799  -24.4850   31.7175 N   0  0  0  0  0  0  0  0  0  0  0  0
  -10.3256  -24.9674   32.9137 N   0  0  0  0  0  0  0  0  0  0  0  0
  -11.2004  -26.6104   33.2028 C   0  0  0  0  0  0  0  0  0  0  0  0
  -12.1031  -27.4906   34.5923 C   0  0  0  0  0  0  0  0  0  0  0  0
  -11.8386  -28.9543   34.5415 C   0  0  0  0  0  0  0  0  0  0  0  0
  -11.6741  -29.2830   33.1002 C   0  0  0  0  0  0  0  0  0  0  0  0
  -11.2233  -28.0279   32.2227 C   0  0  0  0  0  0  0  0  0  0  0  0
   -5.6223  -23.1765   36.0225 H   0  0  0  0  0  0  0  0  0  0  0  0
   -6.4025  -21.8261   36.9980 H   0  0  0  0  0  0  0  0  0  0  0  0
   -4.7249  -21.9010   36.6506 H   0  0  0  0  0  0  0  0  0  0  0  0
   -4.2260  -20.6394   35.2632 H   0  0  0  0  0  0  0  0  0  0  0  0
   -5.5389  -20.0186   36.3890 H   0  0  0  0  0  0  0  0  0  0  0  0
   -7.6169  -18.8406   34.0891 H   0  0  0  0  0  0  0  0  0  0  0  0
   -6.8489  -16.5572   33.5393 H   0  0  0  0  0  0  0  0  0  0  0  0
   -4.2727  -16.2870   33.8572 H   0  0  0  0  0  0  0  0  0  0  0  0
   -6.8692  -23.4563   33.9713 H   0  0  0  0  0  0  0  0  0  0  0  0
   -7.4107  -24.6755   32.8224 H   0  0  0  0  0  0  0  0  0  0  0  0
   -8.5725  -25.8113   30.7631 H   0  0  0  0  0  0  0  0  0  0  0  0
  -10.4800  -26.5622   33.9076 H   0  0  0  0  0  0  0  0  0  0  0  0
  -11.8175  -27.2307   35.6171 H   0  0  0  0  0  0  0  0  0  0  0  0
  -13.1680  -27.2628   34.5729 H   0  0  0  0  0  0  0  0  0  0  0  0
  -10.9472  -29.2182   35.1206 H   0  0  0  0  0  0  0  0  0  0  0  0
  -12.6784  -29.5020   34.9676 H   0  0  0  0  0  0  0  0  0  0  0  0
  -10.9893  -30.1257   33.0186 H   0  0  0  0  0  0  0  0  0  0  0  0
  -12.6756  -29.6262   32.8431 H   0  0  0  0  0  0  0  0  0  0  0  0
  -11.8968  -28.0164   31.3839 H   0  0  0  0  0  0  0  0  0  0  0  0
  -10.3726  -28.1827   31.5962 H   0  0  0  0  0  0  0  0  0  0  0  0
  1  2  1  0
  2  3  1  0
  3  4  1  0
  4  5  2  0
  5  6  1  0
  6  7  1  0
  7  8  2  0
  2  9  1  0
  9 10  2  0
  9 11  1  0
 11 12  1  0
 12 13  2  0
 13 14  1  0
 14 15  2  0
 15 16  1  0
 16 17  1  0
 17 18  1  0
 18 19  1  0
 19 20  1  0
 20 21  1  0
  8  4  1  0
 16 12  1  0
 21 17  1  0
  1 22  1  0
  1 23  1  0
  1 24  1  0
  3 25  1  0
  3 26  1  0
  5 27  1  0
  6 28  1  0
  7 29  1  0
 11 30  1  0
 13 31  1  0
 14 32  1  0
 17 33  1  0
 18 34  1  0
 18 35  1  0
 19 36  1  0
 19 37  1  0
 20 38  1  0
 20 39  1  0
 21 40  1  0
 21 41  1  0
M  END
>  <Energy>  (332) 
544.83001158270304

>  <compound_id>  (332) 
48749

>  <target_id>  (332) 
1

>  <reference_id>  (332) 
116

>  <inspiration_ids>  (332) 
[123, 116]

>  <energy_score>  (332) 
500.0762319021452

>  <distance_score>  (332) 
7.1087994177063365

>  <path>  (332) 
/opt/xchem-fragalysis-2/maxwin/BulkDock/SCRATCH/511021/C48749-P116/C48749-P116.minimised.mol

>  <scratch_subdir>  (332) 
/opt/xchem-fragalysis-2/maxwin/BulkDock/SCRATCH/511021/C48749-P116

>  <fragmenstein_runtime>  (332) 
23.050230503082275

>  <fragmenstein_outcome>  (332) 
too moved

>  <fragmenstein_mode>  (332) 
expansion

>  <fragmenstein_error>  (332) 


$$$$
C18000-P123
     RDKit          3D

 36 38  0  0  0  0  0  0  0  0999 V2000
   -8.5384  -18.4655   27.8032 O   0  0  0  0  0  0  0  0  0  0  0  0
   -8.3682  -19.0203   28.8274 C   0  0  0  0  0  0  0  0  0  0  0  0
   -6.8991  -18.3837   29.9862 N   0  0  0  0  0  0  0  0  0  0  0  0
   -5.6208  -16.8792   29.7528 C   0  0  0  0  0  0  0  0  0  0  0  0
   -3.9151  -16.3335   28.9753 C   0  0  0  0  0  0  0  0  0  0  0  0
   -3.5381  -16.8462   27.7281 N   0  0  0  0  0  0  0  0  0  0  0  0
   -2.3363  -16.5748   27.2648 C   0  0  0  0  0  0  0  0  0  0  0  0
   -2.0729  -15.3312   27.8381 C   0  0  0  0  0  0  0  0  0  0  0  0
   -2.8859  -15.2503   29.1319 N   0  0  0  0  0  0  0  0  0  0  0  0
   -9.9203  -20.4499   29.1465 C   0  0  0  0  0  0  0  0  0  0  0  0
  -10.2313  -21.7665   28.4563 C   0  0  0  0  0  0  0  0  0  0  0  0
  -11.5778  -22.1121   28.5869 C   0  0  0  0  0  0  0  0  0  0  0  0
  -12.0985  -21.3626   29.5406 N   0  0  0  0  0  0  0  0  0  0  0  0
  -10.9742  -21.0070   30.2366 N   0  0  0  0  0  0  0  0  0  0  0  0
  -10.9068  -21.6154   31.5872 C   0  0  0  0  0  0  0  0  0  0  0  0
  -12.0573  -21.4301   32.6090 C   0  0  0  0  0  0  0  0  0  0  0  0
  -13.1719  -22.3537   32.2091 C   0  0  0  0  0  0  0  0  0  0  0  0
  -12.4061  -23.5988   31.7983 C   0  0  0  0  0  0  0  0  0  0  0  0
  -10.9550  -23.1848   31.6077 C   0  0  0  0  0  0  0  0  0  0  0  0
   -6.8162  -18.9934   30.7784 H   0  0  0  0  0  0  0  0  0  0  0  0
   -5.6280  -16.4400   30.7495 H   0  0  0  0  0  0  0  0  0  0  0  0
   -6.1581  -16.1635   29.1340 H   0  0  0  0  0  0  0  0  0  0  0  0
   -1.8824  -17.3508   26.6625 H   0  0  0  0  0  0  0  0  0  0  0  0
   -1.1711  -14.8126   27.8563 H   0  0  0  0  0  0  0  0  0  0  0  0
   -2.9236  -14.4068   29.6606 H   0  0  0  0  0  0  0  0  0  0  0  0
   -9.4818  -22.4409   28.0768 H   0  0  0  0  0  0  0  0  0  0  0  0
  -12.1561  -22.8903   28.1080 H   0  0  0  0  0  0  0  0  0  0  0  0
  -10.0259  -21.1606   32.0177 H   0  0  0  0  0  0  0  0  0  0  0  0
  -12.2811  -20.4191   32.8750 H   0  0  0  0  0  0  0  0  0  0  0  0
  -11.7972  -21.8365   33.5857 H   0  0  0  0  0  0  0  0  0  0  0  0
  -13.7741  -21.9688   31.3853 H   0  0  0  0  0  0  0  0  0  0  0  0
  -13.8501  -22.5528   33.0457 H   0  0  0  0  0  0  0  0  0  0  0  0
  -12.4652  -24.3781   32.5640 H   0  0  0  0  0  0  0  0  0  0  0  0
  -12.7881  -24.0042   30.8576 H   0  0  0  0  0  0  0  0  0  0  0  0
  -10.6147  -23.7291   30.7283 H   0  0  0  0  0  0  0  0  0  0  0  0
  -10.3649  -23.5586   32.4539 H   0  0  0  0  0  0  0  0  0  0  0  0
  1  2  2  0
  2  3  1  0
  3  4  1  0
  4  5  1  0
  5  6  2  0
  6  7  1  0
  7  8  2  0
  8  9  1  0
  2 10  1  0
 10 11  2  0
 11 12  1  0
 12 13  2  0
 13 14  1  0
 14 15  1  0
 15 16  1  0
 16 17  1  0
 17 18  1  0
 18 19  1  0
  9  5  1  0
 14 10  1  0
 19 15  1  0
  3 20  1  0
  4 21  1  0
  4 22  1  0
  7 23  1  0
  8 24  1  0
  9 25  1  0
 11 26  1  0
 12 27  1  0
 15 28  1  0
 16 29  1  0
 16 30  1  0
 17 31  1  0
 17 32  1  0
 18 33  1  0
 18 34  1  0
 19 35  1  0
 19 36  1  0
M  END
>  <Energy>  (333) 
575.43144215055634

>  <compound_id>  (333) 
18000

>  <target_id>  (333) 
1

>  <reference_id>  (333) 
123

>  <inspiration_ids>  (333) 
[123, 116]

>  <energy_score>  (333) 
582.3789506025187

>  <distance_score>  (333) 
4.64079868226912

>  <path>  (333) 
/opt/xchem-fragalysis-2/maxwin/BulkDock/SCRATCH/511021/C18000-P123/C18000-P123.minimised.mol

>  <scratch_subdir>  (333) 
/opt/xchem-fragalysis-2/maxwin/BulkDock/SCRATCH/511021/C18000-P123

>  <fragmenstein_runtime>  (333) 
15.263600587844849

>  <fragmenstein_outcome>  (333) 
too moved

>  <fragmenstein_mode>  (333) 
expansion

>  <fragmenstein_error>  (333) 


$$$$
C18000-P116
     RDKit          3D

 36 38  0  0  0  0  0  0  0  0999 V2000
   -7.9981  -21.6117   35.5112 O   0  0  0  0  0  0  0  0  0  0  0  0
   -7.7746  -21.6402   34.3400 C   0  0  0  0  0  0  0  0  0  0  0  0
   -7.1802  -20.6020   33.4535 N   0  0  0  0  0  0  0  0  0  0  0  0
   -6.7658  -19.1322   33.7436 C   0  0  0  0  0  0  0  0  0  0  0  0
   -6.8162  -17.9375   32.5894 C   0  0  0  0  0  0  0  0  0  0  0  0
   -6.2257  -16.7277   32.5330 N   0  0  0  0  0  0  0  0  0  0  0  0
   -5.9747  -16.1081   30.9326 C   0  0  0  0  0  0  0  0  0  0  0  0
   -6.1036  -17.1369   30.0862 C   0  0  0  0  0  0  0  0  0  0  0  0
   -7.1074  -18.1256   31.2016 N   0  0  0  0  0  0  0  0  0  0  0  0
   -8.3978  -23.1360   33.6525 C   0  0  0  0  0  0  0  0  0  0  0  0
   -9.7278  -22.9182   32.5808 C   0  0  0  0  0  0  0  0  0  0  0  0
  -10.6854  -23.7657   32.1657 C   0  0  0  0  0  0  0  0  0  0  0  0
   -9.6608  -24.4397   31.8072 N   0  0  0  0  0  0  0  0  0  0  0  0
   -8.9416  -24.2485   32.8787 N   0  0  0  0  0  0  0  0  0  0  0  0
   -9.3072  -25.2696   33.6410 C   0  0  0  0  0  0  0  0  0  0  0  0
   -7.8058  -25.1088   35.2981 C   0  0  0  0  0  0  0  0  0  0  0  0
   -7.5502  -27.2463   35.6835 C   0  0  0  0  0  0  0  0  0  0  0  0
   -9.4047  -28.1292   35.3536 C   0  0  0  0  0  0  0  0  0  0  0  0
  -10.6236  -26.8022   34.1328 C   0  0  0  0  0  0  0  0  0  0  0  0
   -7.2114  -20.9217   32.5097 H   0  0  0  0  0  0  0  0  0  0  0  0
   -5.7299  -19.1799   34.0958 H   0  0  0  0  0  0  0  0  0  0  0  0
   -7.3990  -18.7907   34.5694 H   0  0  0  0  0  0  0  0  0  0  0  0
   -6.1060  -15.0504   30.6858 H   0  0  0  0  0  0  0  0  0  0  0  0
   -6.2788  -17.4739   29.0809 H   0  0  0  0  0  0  0  0  0  0  0  0
   -7.5096  -18.9094   30.7361 H   0  0  0  0  0  0  0  0  0  0  0  0
   -9.8866  -21.8365   32.3786 H   0  0  0  0  0  0  0  0  0  0  0  0
  -11.5263  -23.4405   31.6139 H   0  0  0  0  0  0  0  0  0  0  0  0
   -9.0459  -25.8662   32.6791 H   0  0  0  0  0  0  0  0  0  0  0  0
   -7.3906  -25.2224   36.3375 H   0  0  0  0  0  0  0  0  0  0  0  0
   -7.0834  -24.1873   35.0624 H   0  0  0  0  0  0  0  0  0  0  0  0
   -6.8823  -27.8008   35.0085 H   0  0  0  0  0  0  0  0  0  0  0  0
   -7.3726  -27.2853   36.7451 H   0  0  0  0  0  0  0  0  0  0  0  0
  -10.0945  -28.2672   36.1729 H   0  0  0  0  0  0  0  0  0  0  0  0
   -9.2719  -29.1693   34.9889 H   0  0  0  0  0  0  0  0  0  0  0  0
  -11.5210  -27.1713   34.7391 H   0  0  0  0  0  0  0  0  0  0  0  0
  -11.0726  -27.0910   33.1351 H   0  0  0  0  0  0  0  0  0  0  0  0
  1  2  2  0
  2  3  1  0
  3  4  1  0
  4  5  1  0
  5  6  2  0
  6  7  1  0
  7  8  2  0
  8  9  1  0
  2 10  1  0
 10 11  2  0
 11 12  1  0
 12 13  2  0
 13 14  1  0
 14 15  1  0
 15 16  1  0
 16 17  1  0
 17 18  1  0
 18 19  1  0
  9  5  1  0
 14 10  1  0
 19 15  1  0
  3 20  1  0
  4 21  1  0
  4 22  1  0
  7 23  1  0
  8 24  1  0
  9 25  1  0
 11 26  1  0
 12 27  1  0
 15 28  1  0
 16 29  1  0
 16 30  1  0
 17 31  1  0
 17 32  1  0
 18 33  1  0
 18 34  1  0
 19 35  1  0
 19 36  1  0
M  END
>  <Energy>  (334) 
1001.4767096045662

>  <compound_id>  (334) 
18000

>  <target_id>  (334) 
1

>  <reference_id>  (334) 
116

>  <inspiration_ids>  (334) 
[123, 116]

>  <energy_score>  (334) 
1008.4242180565344

>  <distance_score>  (334) 
5.7417803816717585

>  <path>  (334) 
/opt/xchem-fragalysis-2/maxwin/BulkDock/SCRATCH/511021/C18000-P116/C18000-P116.minimised.mol

>  <scratch_subdir>  (334) 
/opt/xchem-fragalysis-2/maxwin/BulkDock/SCRATCH/511021/C18000-P116

>  <fragmenstein_runtime>  (334) 
19.782499313354492

>  <fragmenstein_outcome>  (334) 
too moved

>  <fragmenstein_mode>  (334) 
expansion

>  <fragmenstein_error>  (334) 


$$$$
C18001-P123
     RDKit          3D

 38 41  0  0  0  0  0  0  0  0999 V2000
   -2.4450  -16.4223   27.4041 C   0  0  0  0  0  0  0  0  0  0  0  0
   -1.9847  -15.2375   27.9120 C   0  0  0  0  0  0  0  0  0  0  0  0
   -2.6224  -14.9844   29.2609 N   0  0  0  0  0  0  0  0  0  0  0  0
   -3.6327  -16.0055   29.4665 C   0  0  0  0  0  0  0  0  0  0  0  0
   -5.2720  -16.1129   30.3171 C   0  0  0  0  0  0  0  0  0  0  0  0
   -5.8389  -17.1460   29.9660 C   0  0  0  0  0  0  0  0  0  0  0  0
   -6.6829  -17.9684   31.1252 N   0  0  0  0  0  0  0  0  0  0  0  0
   -6.7720  -17.8061   32.5634 C   0  0  0  0  0  0  0  0  0  0  0  0
   -6.4024  -16.7117   33.1232 C   0  0  0  0  0  0  0  0  0  0  0  0
   -7.4665  -16.1601   33.9785 C   0  0  0  0  0  0  0  0  0  0  0  0
   -8.4394  -15.1729   33.6686 C   0  0  0  0  0  0  0  0  0  0  0  0
   -9.3503  -15.2027   34.6917 C   0  0  0  0  0  0  0  0  0  0  0  0
   -8.8971  -16.1371   35.5690 N   0  0  0  0  0  0  0  0  0  0  0  0
   -9.4399  -16.4332   36.8750 C   0  0  0  0  0  0  0  0  0  0  0  0
  -10.9509  -16.6645   36.9133 C   0  0  0  0  0  0  0  0  0  0  0  0
  -11.2652  -16.6157   38.4013 C   0  0  0  0  0  0  0  0  0  0  0  0
  -10.2793  -15.6075   38.9931 C   0  0  0  0  0  0  0  0  0  0  0  0
   -9.2484  -15.3153   37.9016 C   0  0  0  0  0  0  0  0  0  0  0  0
   -7.7706  -16.7509   35.1524 N   0  0  0  0  0  0  0  0  0  0  0  0
   -5.5597  -16.2988   32.0805 C   0  0  0  0  0  0  0  0  0  0  0  0
   -3.5873  -16.4963   28.1882 N   0  0  0  0  0  0  0  0  0  0  0  0
   -2.2517  -17.1854   26.6667 H   0  0  0  0  0  0  0  0  0  0  0  0
   -1.0835  -14.7521   27.7378 H   0  0  0  0  0  0  0  0  0  0  0  0
   -2.6224  -14.0264   29.5569 H   0  0  0  0  0  0  0  0  0  0  0  0
   -5.8771  -17.4724   28.9875 H   0  0  0  0  0  0  0  0  0  0  0  0
   -7.3865  -18.4484   33.1967 H   0  0  0  0  0  0  0  0  0  0  0  0
   -8.5100  -14.5553   32.7856 H   0  0  0  0  0  0  0  0  0  0  0  0
  -10.2564  -14.6383   34.8584 H   0  0  0  0  0  0  0  0  0  0  0  0
   -8.9180  -17.3237   37.2432 H   0  0  0  0  0  0  0  0  0  0  0  0
  -11.2491  -17.6114   36.4550 H   0  0  0  0  0  0  0  0  0  0  0  0
  -11.4990  -15.8662   36.3993 H   0  0  0  0  0  0  0  0  0  0  0  0
  -11.0984  -17.6021   38.8486 H   0  0  0  0  0  0  0  0  0  0  0  0
  -12.3057  -16.3373   38.5934 H   0  0  0  0  0  0  0  0  0  0  0  0
   -9.8000  -16.0250   39.8854 H   0  0  0  0  0  0  0  0  0  0  0  0
  -10.7879  -14.6860   39.2961 H   0  0  0  0  0  0  0  0  0  0  0  0
   -9.4476  -14.3297   37.4632 H   0  0  0  0  0  0  0  0  0  0  0  0
   -8.2280  -15.2926   38.2986 H   0  0  0  0  0  0  0  0  0  0  0  0
   -4.5615  -16.5880   32.5025 H   0  0  0  0  0  0  0  0  0  0  0  0
  1  2  2  0
  2  3  1  0
  3  4  1  0
  4  5  1  0
  5  6  2  0
  6  7  1  0
  7  8  2  0
  8  9  1  0
  9 10  1  0
 10 11  1  0
 11 12  2  0
 12 13  1  0
 13 14  1  0
 14 15  1  0
 15 16  1  0
 16 17  1  0
 17 18  1  0
 13 19  1  0
  9 20  2  0
  4 21  2  0
 21  1  1  0
 20  5  1  0
 19 10  2  0
 18 14  1  0
  1 22  1  0
  2 23  1  0
  3 24  1  0
  6 25  1  0
  8 26  1  0
 11 27  1  0
 12 28  1  0
 14 29  1  0
 15 30  1  0
 15 31  1  0
 16 32  1  0
 16 33  1  0
 17 34  1  0
 17 35  1  0
 18 36  1  0
 18 37  1  0
 20 38  1  0
M  END
>  <Energy>  (335) 
335.72417425375448

>  <compound_id>  (335) 
18001

>  <target_id>  (335) 
1

>  <reference_id>  (335) 
123

>  <inspiration_ids>  (335) 
[123, 116]

>  <energy_score>  (335) 
265.1973466793597

>  <distance_score>  (335) 
7.366963335706165

>  <path>  (335) 
/opt/xchem-fragalysis-2/maxwin/BulkDock/SCRATCH/511021/C18001-P123/C18001-P123.minimised.mol

>  <scratch_subdir>  (335) 
/opt/xchem-fragalysis-2/maxwin/BulkDock/SCRATCH/511021/C18001-P123

>  <fragmenstein_runtime>  (335) 
15.081514835357666

>  <fragmenstein_outcome>  (335) 
too moved

>  <fragmenstein_mode>  (335) 
expansion

>  <fragmenstein_error>  (335) 


$$$$
C18001-P116
     RDKit          3D

 38 41  0  0  0  0  0  0  0  0999 V2000
   -3.5929  -15.1791   29.8121 C   0  0  0  0  0  0  0  0  0  0  0  0
   -3.3669  -15.7361   28.5377 C   0  0  0  0  0  0  0  0  0  0  0  0
   -4.7742  -16.6466   29.1191 N   0  0  0  0  0  0  0  0  0  0  0  0
   -5.9112  -16.6437   30.4701 C   0  0  0  0  0  0  0  0  0  0  0  0
   -6.7855  -17.7738   32.0108 C   0  0  0  0  0  0  0  0  0  0  0  0
   -7.3773  -17.3574   33.2229 C   0  0  0  0  0  0  0  0  0  0  0  0
   -8.1399  -18.2451   34.3132 N   0  0  0  0  0  0  0  0  0  0  0  0
   -8.4858  -19.8119   34.3699 C   0  0  0  0  0  0  0  0  0  0  0  0
   -8.0825  -20.8746   33.5005 C   0  0  0  0  0  0  0  0  0  0  0  0
   -9.5541  -21.9246   32.4699 C   0  0  0  0  0  0  0  0  0  0  0  0
  -11.0559  -21.7964   31.3073 C   0  0  0  0  0  0  0  0  0  0  0  0
  -11.5580  -23.0985   31.6460 C   0  0  0  0  0  0  0  0  0  0  0  0
  -11.4516  -24.3746   32.9652 N   0  0  0  0  0  0  0  0  0  0  0  0
  -13.0532  -24.7750   34.4204 C   0  0  0  0  0  0  0  0  0  0  0  0
  -12.8446  -26.2505   35.8309 C   0  0  0  0  0  0  0  0  0  0  0  0
  -11.6023  -25.2884   36.6546 C   0  0  0  0  0  0  0  0  0  0  0  0
  -11.6907  -23.2937   36.5023 C   0  0  0  0  0  0  0  0  0  0  0  0
  -12.9672  -23.4589   36.1002 C   0  0  0  0  0  0  0  0  0  0  0  0
   -9.7962  -23.6327   32.8557 N   0  0  0  0  0  0  0  0  0  0  0  0
   -7.0673  -19.5350   32.6216 C   0  0  0  0  0  0  0  0  0  0  0  0
   -5.4576  -15.3771   30.2750 N   0  0  0  0  0  0  0  0  0  0  0  0
   -3.3733  -14.1085   29.6394 H   0  0  0  0  0  0  0  0  0  0  0  0
   -2.6559  -16.3161   27.9343 H   0  0  0  0  0  0  0  0  0  0  0  0
   -4.6551  -17.2511   28.3136 H   0  0  0  0  0  0  0  0  0  0  0  0
   -7.4748  -16.3234   33.5332 H   0  0  0  0  0  0  0  0  0  0  0  0
   -9.2058  -19.9579   35.1681 H   0  0  0  0  0  0  0  0  0  0  0  0
  -11.1346  -21.1674   30.4372 H   0  0  0  0  0  0  0  0  0  0  0  0
  -11.7493  -22.6850   32.5286 H   0  0  0  0  0  0  0  0  0  0  0  0
  -13.8894  -25.3436   33.9658 H   0  0  0  0  0  0  0  0  0  0  0  0
  -12.3796  -27.1452   35.3177 H   0  0  0  0  0  0  0  0  0  0  0  0
  -13.4943  -26.8651   36.4029 H   0  0  0  0  0  0  0  0  0  0  0  0
  -10.7813  -25.9217   36.5908 H   0  0  0  0  0  0  0  0  0  0  0  0
  -11.1484  -25.3931   37.5725 H   0  0  0  0  0  0  0  0  0  0  0  0
  -10.8697  -22.7468   36.2543 H   0  0  0  0  0  0  0  0  0  0  0  0
  -11.6585  -22.5523   37.4142 H   0  0  0  0  0  0  0  0  0  0  0  0
  -13.8355  -22.7125   36.2549 H   0  0  0  0  0  0  0  0  0  0  0  0
  -12.7215  -22.4136   35.9688 H   0  0  0  0  0  0  0  0  0  0  0  0
   -6.1266  -19.6787   33.2578 H   0  0  0  0  0  0  0  0  0  0  0  0
  1  2  2  0
  2  3  1  0
  3  4  1  0
  4  5  1  0
  5  6  2  0
  6  7  1  0
  7  8  2  0
  8  9  1  0
  9 10  1  0
 10 11  1  0
 11 12  2  0
 12 13  1  0
 13 14  1  0
 14 15  1  0
 15 16  1  0
 16 17  1  0
 17 18  1  0
 13 19  1  0
  9 20  2  0
  4 21  2  0
 21  1  1  0
 20  5  1  0
 19 10  2  0
 18 14  1  0
  1 22  1  0
  2 23  1  0
  3 24  1  0
  6 25  1  0
  8 26  1  0
 11 27  1  0
 12 28  1  0
 14 29  1  0
 15 30  1  0
 15 31  1  0
 16 32  1  0
 16 33  1  0
 17 34  1  0
 17 35  1  0
 18 36  1  0
 18 37  1  0
 20 38  1  0
M  END
>  <Energy>  (336) 
1947.0450985018495

>  <compound_id>  (336) 
18001

>  <target_id>  (336) 
1

>  <reference_id>  (336) 
116

>  <inspiration_ids>  (336) 
[123, 116]

>  <energy_score>  (336) 
1876.518270927471

>  <distance_score>  (336) 
3.8278904423514617

>  <path>  (336) 
/opt/xchem-fragalysis-2/maxwin/BulkDock/SCRATCH/511021/C18001-P116/C18001-P116.minimised.mol

>  <scratch_subdir>  (336) 
/opt/xchem-fragalysis-2/maxwin/BulkDock/SCRATCH/511021/C18001-P116

>  <fragmenstein_runtime>  (336) 
11.091628789901733

>  <fragmenstein_outcome>  (336) 
too moved

>  <fragmenstein_mode>  (336) 
expansion

>  <fragmenstein_error>  (336) 


$$$$
C48750-P123
     RDKit          3D

 40 42  0  0  0  0  0  0  0  0999 V2000
   -5.5129  -16.3861   29.8338 C   0  0  0  0  0  0  0  0  0  0  0  0
   -5.9374  -15.6485   31.0218 N   0  0  0  0  0  0  0  0  0  0  0  0
   -6.3283  -14.1867   30.5438 C   0  0  0  0  0  0  0  0  0  0  0  0
   -5.2804  -13.1910   30.3397 C   0  0  0  0  0  0  0  0  0  0  0  0
   -5.2211  -11.9098   30.8065 C   0  0  0  0  0  0  0  0  0  0  0  0
   -4.8932  -11.9472   29.5152 N   0  0  0  0  0  0  0  0  0  0  0  0
   -3.6061  -12.2077   29.6146 C   0  0  0  0  0  0  0  0  0  0  0  0
   -3.9581  -13.3956   29.8901 N   0  0  0  0  0  0  0  0  0  0  0  0
   -6.4269  -16.5519   32.9184 S   0  0  0  0  0  0  0  0  0  0  0  0
   -6.2228  -15.6321   33.9947 O   0  0  0  0  0  0  0  0  0  0  0  0
   -5.7407  -17.7682   32.6580 O   0  0  0  0  0  0  0  0  0  0  0  0
   -8.0390  -17.3798   33.7895 C   0  0  0  0  0  0  0  0  0  0  0  0
   -7.8383  -18.6816   34.2951 C   0  0  0  0  0  0  0  0  0  0  0  0
   -7.5427  -18.4508   35.6533 C   0  0  0  0  0  0  0  0  0  0  0  0
   -7.8501  -17.2075   35.9843 N   0  0  0  0  0  0  0  0  0  0  0  0
   -8.6912  -16.9142   34.9792 N   0  0  0  0  0  0  0  0  0  0  0  0
  -10.0841  -16.8277   35.4950 C   0  0  0  0  0  0  0  0  0  0  0  0
  -10.1323  -16.8560   37.1058 C   0  0  0  0  0  0  0  0  0  0  0  0
  -11.5536  -17.1397   37.5594 C   0  0  0  0  0  0  0  0  0  0  0  0
  -12.1415  -17.9670   36.4504 C   0  0  0  0  0  0  0  0  0  0  0  0
  -11.4118  -17.5704   35.1722 C   0  0  0  0  0  0  0  0  0  0  0  0
   -5.7957  -17.3970   29.6952 H   0  0  0  0  0  0  0  0  0  0  0  0
   -6.0678  -15.9121   29.0475 H   0  0  0  0  0  0  0  0  0  0  0  0
   -4.4666  -16.2918   29.5828 H   0  0  0  0  0  0  0  0  0  0  0  0
   -7.1283  -13.8973   31.1973 H   0  0  0  0  0  0  0  0  0  0  0  0
   -6.6798  -14.1149   29.5014 H   0  0  0  0  0  0  0  0  0  0  0  0
   -5.8735  -11.2530   31.3836 H   0  0  0  0  0  0  0  0  0  0  0  0
   -5.3971  -11.5165   28.7412 H   0  0  0  0  0  0  0  0  0  0  0  0
   -2.7071  -11.6833   29.4068 H   0  0  0  0  0  0  0  0  0  0  0  0
   -7.4310  -19.5405   33.8000 H   0  0  0  0  0  0  0  0  0  0  0  0
   -7.1133  -19.0994   36.3986 H   0  0  0  0  0  0  0  0  0  0  0  0
  -10.3408  -15.8795   35.0304 H   0  0  0  0  0  0  0  0  0  0  0  0
   -9.4830  -17.6069   37.5368 H   0  0  0  0  0  0  0  0  0  0  0  0
   -9.6945  -16.0002   37.6211 H   0  0  0  0  0  0  0  0  0  0  0  0
  -12.1375  -16.2286   37.7035 H   0  0  0  0  0  0  0  0  0  0  0  0
  -11.5723  -17.6758   38.5143 H   0  0  0  0  0  0  0  0  0  0  0  0
  -11.9977  -19.0232   36.6495 H   0  0  0  0  0  0  0  0  0  0  0  0
  -13.2233  -17.8174   36.3641 H   0  0  0  0  0  0  0  0  0  0  0  0
  -12.0917  -16.8409   34.7078 H   0  0  0  0  0  0  0  0  0  0  0  0
  -11.3636  -18.4191   34.5014 H   0  0  0  0  0  0  0  0  0  0  0  0
  1  2  1  0
  2  3  1  0
  3  4  1  0
  4  5  2  0
  5  6  1  0
  6  7  1  0
  7  8  2  0
  2  9  1  0
  9 10  2  0
  9 11  2  0
  9 12  1  0
 12 13  2  0
 13 14  1  0
 14 15  2  0
 15 16  1  0
 16 17  1  0
 17 18  1  0
 18 19  1  0
 19 20  1  0
 20 21  1  0
  8  4  1  0
 16 12  1  0
 21 17  1  0
  1 22  1  0
  1 23  1  0
  1 24  1  0
  3 25  1  0
  3 26  1  0
  5 27  1  0
  6 28  1  0
  7 29  1  0
 13 30  1  0
 14 31  1  0
 17 32  1  0
 18 33  1  0
 18 34  1  0
 19 35  1  0
 19 36  1  0
 20 37  1  0
 20 38  1  0
 21 39  1  0
 21 40  1  0
M  END
>  <Energy>  (337) 
272.60679323507634

>  <compound_id>  (337) 
48750

>  <target_id>  (337) 
1

>  <reference_id>  (337) 
123

>  <inspiration_ids>  (337) 
[123, 116]

>  <energy_score>  (337) 
297.7700175427044

>  <distance_score>  (337) 
6.512740435085105

>  <path>  (337) 
/opt/xchem-fragalysis-2/maxwin/BulkDock/SCRATCH/511021/C48750-P123/C48750-P123.minimised.mol

>  <scratch_subdir>  (337) 
/opt/xchem-fragalysis-2/maxwin/BulkDock/SCRATCH/511021/C48750-P123

>  <fragmenstein_runtime>  (337) 
27.679446935653687

>  <fragmenstein_outcome>  (337) 
too moved

>  <fragmenstein_mode>  (337) 
expansion

>  <fragmenstein_error>  (337) 


$$$$
C48750-P116
     RDKit          3D

 40 42  0  0  0  0  0  0  0  0999 V2000
   -4.9530  -19.2674   35.9222 C   0  0  0  0  0  0  0  0  0  0  0  0
   -4.1957  -19.9149   34.8179 N   0  0  0  0  0  0  0  0  0  0  0  0
   -3.5286  -18.8185   33.9872 C   0  0  0  0  0  0  0  0  0  0  0  0
   -2.5442  -17.8114   34.5001 C   0  0  0  0  0  0  0  0  0  0  0  0
   -1.3787  -17.9137   35.2269 C   0  0  0  0  0  0  0  0  0  0  0  0
   -0.7698  -16.6841   35.1294 N   0  0  0  0  0  0  0  0  0  0  0  0
   -1.5610  -15.8850   34.3603 C   0  0  0  0  0  0  0  0  0  0  0  0
   -2.6354  -16.5267   33.9786 N   0  0  0  0  0  0  0  0  0  0  0  0
   -5.3459  -20.7968   33.5780 S   0  0  0  0  0  0  0  0  0  0  0  0
   -6.5047  -19.9377   33.5046 O   0  0  0  0  0  0  0  0  0  0  0  0
   -4.5365  -21.1024   32.4301 O   0  0  0  0  0  0  0  0  0  0  0  0
   -6.0599  -22.6812   34.1913 C   0  0  0  0  0  0  0  0  0  0  0  0
   -6.0772  -22.3651   35.5452 C   0  0  0  0  0  0  0  0  0  0  0  0
   -7.2739  -21.6218   35.5323 C   0  0  0  0  0  0  0  0  0  0  0  0
   -8.1522  -22.2006   34.7431 N   0  0  0  0  0  0  0  0  0  0  0  0
   -7.5227  -23.2275   34.0978 N   0  0  0  0  0  0  0  0  0  0  0  0
   -8.4323  -24.8384   33.6801 C   0  0  0  0  0  0  0  0  0  0  0  0
   -7.4661  -25.2588   35.6228 C   0  0  0  0  0  0  0  0  0  0  0  0
   -7.5421  -27.3555   35.7417 C   0  0  0  0  0  0  0  0  0  0  0  0
   -9.4312  -27.9636   35.2338 C   0  0  0  0  0  0  0  0  0  0  0  0
  -10.1448  -26.2308   33.9045 C   0  0  0  0  0  0  0  0  0  0  0  0
   -5.4158  -19.9889   36.5886 H   0  0  0  0  0  0  0  0  0  0  0  0
   -4.2547  -18.7080   36.5493 H   0  0  0  0  0  0  0  0  0  0  0  0
   -5.7082  -18.5698   35.5499 H   0  0  0  0  0  0  0  0  0  0  0  0
   -2.9648  -19.3214   33.1997 H   0  0  0  0  0  0  0  0  0  0  0  0
   -4.3495  -18.1936   33.6171 H   0  0  0  0  0  0  0  0  0  0  0  0
   -0.9158  -18.7422   35.7412 H   0  0  0  0  0  0  0  0  0  0  0  0
    0.1128  -16.4092   35.5411 H   0  0  0  0  0  0  0  0  0  0  0  0
   -1.3120  -14.8600   34.1195 H   0  0  0  0  0  0  0  0  0  0  0  0
   -5.2671  -22.0898   36.1837 H   0  0  0  0  0  0  0  0  0  0  0  0
   -7.5771  -20.7593   36.1029 H   0  0  0  0  0  0  0  0  0  0  0  0
   -8.0658  -24.9053   32.6832 H   0  0  0  0  0  0  0  0  0  0  0  0
   -7.5831  -25.2389   36.7510 H   0  0  0  0  0  0  0  0  0  0  0  0
   -6.3395  -24.9265   35.7556 H   0  0  0  0  0  0  0  0  0  0  0  0
   -7.3661  -27.3727   36.7956 H   0  0  0  0  0  0  0  0  0  0  0  0
   -6.8997  -27.8734   35.0216 H   0  0  0  0  0  0  0  0  0  0  0  0
  -10.1810  -28.1995   36.0212 H   0  0  0  0  0  0  0  0  0  0  0  0
   -9.2624  -29.0390   34.9108 H   0  0  0  0  0  0  0  0  0  0  0  0
   -9.9271  -26.1771   32.8007 H   0  0  0  0  0  0  0  0  0  0  0  0
  -11.1066  -26.5637   33.4250 H   0  0  0  0  0  0  0  0  0  0  0  0
  1  2  1  0
  2  3  1  0
  3  4  1  0
  4  5  2  0
  5  6  1  0
  6  7  1  0
  7  8  2  0
  2  9  1  0
  9 10  2  0
  9 11  2  0
  9 12  1  0
 12 13  2  0
 13 14  1  0
 14 15  2  0
 15 16  1  0
 16 17  1  0
 17 18  1  0
 18 19  1  0
 19 20  1  0
 20 21  1  0
  8  4  1  0
 16 12  1  0
 21 17  1  0
  1 22  1  0
  1 23  1  0
  1 24  1  0
  3 25  1  0
  3 26  1  0
  5 27  1  0
  6 28  1  0
  7 29  1  0
 13 30  1  0
 14 31  1  0
 17 32  1  0
 18 33  1  0
 18 34  1  0
 19 35  1  0
 19 36  1  0
 20 37  1  0
 20 38  1  0
 21 39  1  0
 21 40  1  0
M  END
>  <Energy>  (338) 
820.083349755266

>  <compound_id>  (338) 
48750

>  <target_id>  (338) 
1

>  <reference_id>  (338) 
116

>  <inspiration_ids>  (338) 
[123, 116]

>  <energy_score>  (338) 
845.2465740628796

>  <distance_score>  (338) 
7.180177355813813

>  <path>  (338) 
/opt/xchem-fragalysis-2/maxwin/BulkDock/SCRATCH/511021/C48750-P116/C48750-P116.minimised.mol

>  <scratch_subdir>  (338) 
/opt/xchem-fragalysis-2/maxwin/BulkDock/SCRATCH/511021/C48750-P116

>  <fragmenstein_runtime>  (338) 
15.756043195724487

>  <fragmenstein_outcome>  (338) 
too moved

>  <fragmenstein_mode>  (338) 
expansion

>  <fragmenstein_error>  (338) 


$$$$
C18002-P123
     RDKit          3D

 39 41  0  0  0  0  0  0  0  0999 V2000
   -5.1955  -18.4249   27.6308 C   0  0  0  0  0  0  0  0  0  0  0  0
   -6.2169  -17.2378   28.7788 C   0  0  0  0  0  0  0  0  0  0  0  0
   -7.9367  -18.1735   28.8277 N   0  0  0  0  0  0  0  0  0  0  0  0
   -8.3727  -19.6972   28.3161 C   0  0  0  0  0  0  0  0  0  0  0  0
   -7.6187  -20.4611   27.6806 O   0  0  0  0  0  0  0  0  0  0  0  0
  -10.0868  -20.7331   28.8115 C   0  0  0  0  0  0  0  0  0  0  0  0
  -10.8926  -21.7891   28.0779 C   0  0  0  0  0  0  0  0  0  0  0  0
  -11.7631  -22.4197   28.9125 C   0  0  0  0  0  0  0  0  0  0  0  0
  -11.5115  -21.9165   30.1373 N   0  0  0  0  0  0  0  0  0  0  0  0
  -12.0467  -22.5950   31.3064 C   0  0  0  0  0  0  0  0  0  0  0  0
  -11.1262  -23.6530   31.9087 C   0  0  0  0  0  0  0  0  0  0  0  0
  -11.8773  -24.1096   33.1420 C   0  0  0  0  0  0  0  0  0  0  0  0
  -12.7151  -22.9178   33.5969 C   0  0  0  0  0  0  0  0  0  0  0  0
  -12.5491  -21.8376   32.5246 C   0  0  0  0  0  0  0  0  0  0  0  0
  -10.6195  -20.8723   30.1165 N   0  0  0  0  0  0  0  0  0  0  0  0
   -4.4730  -16.4079   29.1629 C   0  0  0  0  0  0  0  0  0  0  0  0
   -3.4927  -16.4201   28.0828 N   0  0  0  0  0  0  0  0  0  0  0  0
   -2.4656  -15.3388   28.0490 C   0  0  0  0  0  0  0  0  0  0  0  0
   -2.6140  -14.8536   29.2871 C   0  0  0  0  0  0  0  0  0  0  0  0
   -3.3917  -15.7578   29.9682 N   0  0  0  0  0  0  0  0  0  0  0  0
   -4.1346  -18.5303   27.5879 H   0  0  0  0  0  0  0  0  0  0  0  0
   -5.6452  -19.3180   27.0467 H   0  0  0  0  0  0  0  0  0  0  0  0
   -5.3927  -17.8304   26.9372 H   0  0  0  0  0  0  0  0  0  0  0  0
   -5.9619  -17.6034   29.7641 H   0  0  0  0  0  0  0  0  0  0  0  0
   -8.6493  -17.8207   29.3598 H   0  0  0  0  0  0  0  0  0  0  0  0
  -11.0347  -21.9543   27.0324 H   0  0  0  0  0  0  0  0  0  0  0  0
  -12.4937  -23.1953   28.7276 H   0  0  0  0  0  0  0  0  0  0  0  0
  -12.9266  -23.1300   30.9227 H   0  0  0  0  0  0  0  0  0  0  0  0
  -10.1720  -23.2357   32.2192 H   0  0  0  0  0  0  0  0  0  0  0  0
  -10.9245  -24.4805   31.2208 H   0  0  0  0  0  0  0  0  0  0  0  0
  -11.2207  -24.4997   33.9187 H   0  0  0  0  0  0  0  0  0  0  0  0
  -12.5206  -24.9347   32.8579 H   0  0  0  0  0  0  0  0  0  0  0  0
  -12.4239  -22.5476   34.5821 H   0  0  0  0  0  0  0  0  0  0  0  0
  -13.7666  -23.2134   33.6832 H   0  0  0  0  0  0  0  0  0  0  0  0
  -13.5221  -21.3762   32.3494 H   0  0  0  0  0  0  0  0  0  0  0  0
  -11.8452  -21.0642   32.8405 H   0  0  0  0  0  0  0  0  0  0  0  0
   -1.9712  -15.0686   27.1524 H   0  0  0  0  0  0  0  0  0  0  0  0
   -2.6772  -13.8235   29.5627 H   0  0  0  0  0  0  0  0  0  0  0  0
   -2.9516  -16.0284   30.8390 H   0  0  0  0  0  0  0  0  0  0  0  0
  1  2  1  0
  2  3  1  0
  3  4  1  0
  4  5  2  0
  4  6  1  0
  6  7  1  0
  7  8  2  0
  8  9  1  0
  9 10  1  0
 10 11  1  0
 11 12  1  0
 12 13  1  0
 13 14  1  0
  9 15  1  0
  2 16  1  0
 16 17  2  0
 17 18  1  0
 18 19  2  0
 19 20  1  0
 15  6  2  0
 20 16  1  0
 14 10  1  0
  1 21  1  0
  1 22  1  0
  1 23  1  0
  2 24  1  0
  3 25  1  0
  7 26  1  0
  8 27  1  0
 10 28  1  0
 11 29  1  0
 11 30  1  0
 12 31  1  0
 12 32  1  0
 13 33  1  0
 13 34  1  0
 14 35  1  0
 14 36  1  0
 18 37  1  0
 19 38  1  0
 20 39  1  0
M  END
>  <Energy>  (339) 
578.71505360995911

>  <compound_id>  (339) 
18002

>  <target_id>  (339) 
1

>  <reference_id>  (339) 
123

>  <inspiration_ids>  (339) 
[123, 116]

>  <energy_score>  (339) 
528.2667542824934

>  <distance_score>  (339) 
4.408920944601901

>  <path>  (339) 
/opt/xchem-fragalysis-2/maxwin/BulkDock/SCRATCH/511021/C18002-P123/C18002-P123.minimised.mol

>  <scratch_subdir>  (339) 
/opt/xchem-fragalysis-2/maxwin/BulkDock/SCRATCH/511021/C18002-P123

>  <fragmenstein_runtime>  (339) 
16.04907989501953

>  <fragmenstein_outcome>  (339) 
too moved

>  <fragmenstein_mode>  (339) 
expansion

>  <fragmenstein_error>  (339) 


$$$$
C18002-P116
     RDKit          3D

 39 41  0  0  0  0  0  0  0  0999 V2000
   -5.6710  -18.4565   27.8404 C   0  0  0  0  0  0  0  0  0  0  0  0
   -5.9443  -17.2783   29.2890 C   0  0  0  0  0  0  0  0  0  0  0  0
   -7.2202  -18.6753   29.8021 N   0  0  0  0  0  0  0  0  0  0  0  0
   -8.7305  -19.3250   28.9307 C   0  0  0  0  0  0  0  0  0  0  0  0
   -8.9735  -18.8640   27.9187 O   0  0  0  0  0  0  0  0  0  0  0  0
  -10.3762  -20.6709   29.5614 C   0  0  0  0  0  0  0  0  0  0  0  0
  -11.5089  -21.6104   29.2148 C   0  0  0  0  0  0  0  0  0  0  0  0
  -12.2163  -22.3156   30.3272 C   0  0  0  0  0  0  0  0  0  0  0  0
  -11.5509  -22.8859   31.8576 N   0  0  0  0  0  0  0  0  0  0  0  0
  -11.9422  -24.2731   33.3685 C   0  0  0  0  0  0  0  0  0  0  0  0
  -12.5029  -24.0390   35.6380 C   0  0  0  0  0  0  0  0  0  0  0  0
  -13.6948  -22.5953   36.1842 C   0  0  0  0  0  0  0  0  0  0  0  0
  -15.0173  -23.0561   34.8605 C   0  0  0  0  0  0  0  0  0  0  0  0
  -14.0932  -24.6011   33.8387 C   0  0  0  0  0  0  0  0  0  0  0  0
  -10.7588  -21.2920   31.1949 N   0  0  0  0  0  0  0  0  0  0  0  0
   -4.1623  -16.7667   28.3846 C   0  0  0  0  0  0  0  0  0  0  0  0
   -3.2392  -15.6119   28.5381 N   0  0  0  0  0  0  0  0  0  0  0  0
   -2.0127  -15.6628   27.9328 C   0  0  0  0  0  0  0  0  0  0  0  0
   -1.9803  -16.8121   27.2300 C   0  0  0  0  0  0  0  0  0  0  0  0
   -3.1289  -17.4823   27.5349 N   0  0  0  0  0  0  0  0  0  0  0  0
   -4.6728  -18.7550   27.8610 H   0  0  0  0  0  0  0  0  0  0  0  0
   -5.5731  -17.8442   27.1227 H   0  0  0  0  0  0  0  0  0  0  0  0
   -5.9996  -19.3130   27.1826 H   0  0  0  0  0  0  0  0  0  0  0  0
   -6.4285  -16.3172   29.1337 H   0  0  0  0  0  0  0  0  0  0  0  0
   -7.1743  -19.0908   30.6952 H   0  0  0  0  0  0  0  0  0  0  0  0
  -11.9181  -21.6809   28.2159 H   0  0  0  0  0  0  0  0  0  0  0  0
  -13.1548  -22.7800   30.2529 H   0  0  0  0  0  0  0  0  0  0  0  0
  -13.0500  -24.7782   34.2466 H   0  0  0  0  0  0  0  0  0  0  0  0
  -11.7433  -23.5242   36.2551 H   0  0  0  0  0  0  0  0  0  0  0  0
  -12.9611  -24.9802   35.9874 H   0  0  0  0  0  0  0  0  0  0  0  0
  -12.8946  -21.8828   36.4530 H   0  0  0  0  0  0  0  0  0  0  0  0
  -14.1627  -22.4448   37.1789 H   0  0  0  0  0  0  0  0  0  0  0  0
  -15.2398  -22.2318   34.1754 H   0  0  0  0  0  0  0  0  0  0  0  0
  -15.9587  -23.2942   35.3809 H   0  0  0  0  0  0  0  0  0  0  0  0
  -14.0851  -25.8170   33.9690 H   0  0  0  0  0  0  0  0  0  0  0  0
  -14.9101  -24.5818   32.9362 H   0  0  0  0  0  0  0  0  0  0  0  0
   -1.3043  -14.8606   28.0825 H   0  0  0  0  0  0  0  0  0  0  0  0
   -1.2569  -17.2733   26.5843 H   0  0  0  0  0  0  0  0  0  0  0  0
   -3.2718  -18.3746   27.0992 H   0  0  0  0  0  0  0  0  0  0  0  0
  1  2  1  0
  2  3  1  0
  3  4  1  0
  4  5  2  0
  4  6  1  0
  6  7  1  0
  7  8  2  0
  8  9  1  0
  9 10  1  0
 10 11  1  0
 11 12  1  0
 12 13  1  0
 13 14  1  0
  9 15  1  0
  2 16  1  0
 16 17  2  0
 17 18  1  0
 18 19  2  0
 19 20  1  0
 15  6  2  0
 20 16  1  0
 14 10  1  0
  1 21  1  0
  1 22  1  0
  1 23  1  0
  2 24  1  0
  3 25  1  0
  7 26  1  0
  8 27  1  0
 10 28  1  0
 11 29  1  0
 11 30  1  0
 12 31  1  0
 12 32  1  0
 13 33  1  0
 13 34  1  0
 14 35  1  0
 14 36  1  0
 18 37  1  0
 19 38  1  0
 20 39  1  0
M  END
>  <Energy>  (340) 
2067.7420034886663

>  <compound_id>  (340) 
18002

>  <target_id>  (340) 
1

>  <reference_id>  (340) 
116

>  <inspiration_ids>  (340) 
[123, 116]

>  <energy_score>  (340) 
2017.2937041612079

>  <distance_score>  (340) 
3.9567430539705746

>  <path>  (340) 
/opt/xchem-fragalysis-2/maxwin/BulkDock/SCRATCH/511021/C18002-P116/C18002-P116.minimised.mol

>  <scratch_subdir>  (340) 
/opt/xchem-fragalysis-2/maxwin/BulkDock/SCRATCH/511021/C18002-P116

>  <fragmenstein_runtime>  (340) 
10.13724422454834

>  <fragmenstein_outcome>  (340) 
too moved

>  <fragmenstein_mode>  (340) 
expansion

>  <fragmenstein_error>  (340) 


$$$$
C18004-P123
     RDKit          3D

 45 46  0  0  0  0  0  0  0  0999 V2000
   -7.1491  -15.8190   33.1766 C   0  0  0  0  0  0  0  0  0  0  0  0
   -5.9727  -16.7774   32.1262 C   0  0  0  0  0  0  0  0  0  0  0  0
   -6.7573  -18.0281   32.9165 C   0  0  0  0  0  0  0  0  0  0  0  0
   -6.5744  -19.5093   33.3710 C   0  0  0  0  0  0  0  0  0  0  0  0
   -5.5199  -20.0078   32.3993 C   0  0  0  0  0  0  0  0  0  0  0  0
   -7.2907  -20.7829   33.4247 N   0  0  0  0  0  0  0  0  0  0  0  0
   -8.5643  -21.1383   33.0179 C   0  0  0  0  0  0  0  0  0  0  0  0
   -9.4725  -20.4732   32.5775 O   0  0  0  0  0  0  0  0  0  0  0  0
   -8.6389  -22.9727   33.1631 C   0  0  0  0  0  0  0  0  0  0  0  0
   -9.8529  -23.6704   32.6739 N   0  0  0  0  0  0  0  0  0  0  0  0
  -11.0086  -23.1837   32.1285 C   0  0  0  0  0  0  0  0  0  0  0  0
  -11.6884  -24.2688   31.6359 C   0  0  0  0  0  0  0  0  0  0  0  0
  -10.8920  -25.3705   31.9654 C   0  0  0  0  0  0  0  0  0  0  0  0
   -9.7740  -25.0074   32.5913 N   0  0  0  0  0  0  0  0  0  0  0  0
   -5.2926  -16.2914   30.3762 N   0  0  0  0  0  0  0  0  0  0  0  0
   -3.5852  -15.8741   29.8331 C   0  0  0  0  0  0  0  0  0  0  0  0
   -2.6476  -15.7738   30.5958 O   0  0  0  0  0  0  0  0  0  0  0  0
   -3.0166  -15.7058   28.1720 C   0  0  0  0  0  0  0  0  0  0  0  0
   -2.4673  -14.6171   26.9736 C   0  0  0  0  0  0  0  0  0  0  0  0
   -3.1660  -13.2442   26.6542 N   0  0  0  0  0  0  0  0  0  0  0  0
   -2.6570  -12.6887   25.6019 C   0  0  0  0  0  0  0  0  0  0  0  0
   -1.7115  -13.6248   25.3586 C   0  0  0  0  0  0  0  0  0  0  0  0
   -2.2306  -14.8164   25.6402 N   0  0  0  0  0  0  0  0  0  0  0  0
   -8.0096  -16.3446   33.6180 H   0  0  0  0  0  0  0  0  0  0  0  0
   -7.7302  -15.0436   32.6429 H   0  0  0  0  0  0  0  0  0  0  0  0
   -6.6110  -15.5068   34.0760 H   0  0  0  0  0  0  0  0  0  0  0  0
   -5.0354  -16.6939   32.6529 H   0  0  0  0  0  0  0  0  0  0  0  0
   -7.8049  -17.9498   33.0301 H   0  0  0  0  0  0  0  0  0  0  0  0
   -6.5953  -17.6066   33.9249 H   0  0  0  0  0  0  0  0  0  0  0  0
   -6.6989  -19.2911   34.4228 H   0  0  0  0  0  0  0  0  0  0  0  0
   -5.3882  -21.0728   32.4325 H   0  0  0  0  0  0  0  0  0  0  0  0
   -4.5939  -19.5358   32.5331 H   0  0  0  0  0  0  0  0  0  0  0  0
   -5.7128  -19.9187   31.3678 H   0  0  0  0  0  0  0  0  0  0  0  0
   -6.8648  -21.5436   33.7891 H   0  0  0  0  0  0  0  0  0  0  0  0
   -7.8585  -23.4300   32.5871 H   0  0  0  0  0  0  0  0  0  0  0  0
   -8.3572  -23.2948   34.1405 H   0  0  0  0  0  0  0  0  0  0  0  0
  -11.2502  -22.1308   32.0933 H   0  0  0  0  0  0  0  0  0  0  0  0
  -12.6321  -24.2518   31.1173 H   0  0  0  0  0  0  0  0  0  0  0  0
  -11.0660  -26.4209   31.7747 H   0  0  0  0  0  0  0  0  0  0  0  0
   -5.9099  -16.2373   29.5868 H   0  0  0  0  0  0  0  0  0  0  0  0
   -2.1180  -15.1441   28.5675 H   0  0  0  0  0  0  0  0  0  0  0  0
   -2.8835  -16.6935   27.6598 H   0  0  0  0  0  0  0  0  0  0  0  0
   -2.5739  -11.6615   25.5621 H   0  0  0  0  0  0  0  0  0  0  0  0
   -0.7474  -13.3444   25.6435 H   0  0  0  0  0  0  0  0  0  0  0  0
   -2.5744  -15.5465   25.0163 H   0  0  0  0  0  0  0  0  0  0  0  0
  1  2  1  0
  2  3  1  0
  3  4  1  0
  4  5  1  0
  4  6  1  0
  6  7  1  0
  7  8  2  0
  7  9  1  0
  9 10  1  0
 10 11  1  0
 11 12  2  0
 12 13  1  0
 13 14  2  0
  2 15  1  0
 15 16  1  0
 16 17  2  0
 16 18  1  0
 18 19  1  0
 19 20  2  0
 20 21  1  0
 21 22  2  0
 22 23  1  0
 14 10  1  0
 23 19  1  0
  1 24  1  0
  1 25  1  0
  1 26  1  0
  2 27  1  0
  3 28  1  0
  3 29  1  0
  4 30  1  0
  5 31  1  0
  5 32  1  0
  5 33  1  0
  6 34  1  0
  9 35  1  0
  9 36  1  0
 11 37  1  0
 12 38  1  0
 13 39  1  0
 15 40  1  0
 18 41  1  0
 18 42  1  0
 21 43  1  0
 22 44  1  0
 23 45  1  0
M  END
>  <Energy>  (341) 
557.94512993044816

>  <compound_id>  (341) 
18004

>  <target_id>  (341) 
1

>  <reference_id>  (341) 
123

>  <inspiration_ids>  (341) 
[123, 116]

>  <energy_score>  (341) 
498.9750224473536

>  <distance_score>  (341) 
2.784808941757066

>  <path>  (341) 
/opt/xchem-fragalysis-2/maxwin/BulkDock/SCRATCH/511021/C18004-P123/C18004-P123.minimised.mol

>  <scratch_subdir>  (341) 
/opt/xchem-fragalysis-2/maxwin/BulkDock/SCRATCH/511021/C18004-P123

>  <fragmenstein_runtime>  (341) 
20.636502265930176

>  <fragmenstein_outcome>  (341) 
too moved

>  <fragmenstein_mode>  (341) 
expansion

>  <fragmenstein_error>  (341) 


$$$$
C18004-P116
     RDKit          3D

 45 46  0  0  0  0  0  0  0  0999 V2000
   -7.8378  -16.1287   33.2640 C   0  0  0  0  0  0  0  0  0  0  0  0
   -6.6685  -16.8235   32.5645 C   0  0  0  0  0  0  0  0  0  0  0  0
   -5.7120  -17.5706   33.6622 C   0  0  0  0  0  0  0  0  0  0  0  0
   -6.2691  -18.8791   34.4842 C   0  0  0  0  0  0  0  0  0  0  0  0
   -7.6458  -18.6390   35.1094 C   0  0  0  0  0  0  0  0  0  0  0  0
   -6.1271  -20.3337   34.0630 N   0  0  0  0  0  0  0  0  0  0  0  0
   -6.9604  -21.5324   34.3928 C   0  0  0  0  0  0  0  0  0  0  0  0
   -7.9908  -21.6207   35.0047 O   0  0  0  0  0  0  0  0  0  0  0  0
   -6.3455  -22.9215   33.9686 C   0  0  0  0  0  0  0  0  0  0  0  0
   -6.9523  -24.0564   33.0913 N   0  0  0  0  0  0  0  0  0  0  0  0
   -8.5300  -24.7199   32.6648 C   0  0  0  0  0  0  0  0  0  0  0  0
   -8.2997  -25.5912   31.4430 C   0  0  0  0  0  0  0  0  0  0  0  0
   -6.6441  -25.3131   31.0057 C   0  0  0  0  0  0  0  0  0  0  0  0
   -5.9897  -24.4613   31.9606 N   0  0  0  0  0  0  0  0  0  0  0  0
   -5.9758  -16.2306   30.8764 N   0  0  0  0  0  0  0  0  0  0  0  0
   -4.6835  -16.5165   30.1418 C   0  0  0  0  0  0  0  0  0  0  0  0
   -3.9898  -17.1148   30.7400 O   0  0  0  0  0  0  0  0  0  0  0  0
   -3.9412  -16.2757   28.3767 C   0  0  0  0  0  0  0  0  0  0  0  0
   -2.3668  -15.2673   28.4288 C   0  0  0  0  0  0  0  0  0  0  0  0
   -1.4655  -15.1854   29.4045 N   0  0  0  0  0  0  0  0  0  0  0  0
   -0.6105  -14.1448   29.1489 C   0  0  0  0  0  0  0  0  0  0  0  0
   -0.9836  -13.5182   27.9990 C   0  0  0  0  0  0  0  0  0  0  0  0
   -1.9650  -14.3272   27.4754 N   0  0  0  0  0  0  0  0  0  0  0  0
   -8.6962  -16.7760   33.4239 H   0  0  0  0  0  0  0  0  0  0  0  0
   -8.1796  -15.2271   32.7435 H   0  0  0  0  0  0  0  0  0  0  0  0
   -7.5061  -15.8965   34.2697 H   0  0  0  0  0  0  0  0  0  0  0  0
   -7.1149  -17.7702   32.1979 H   0  0  0  0  0  0  0  0  0  0  0  0
   -5.5736  -16.8162   34.4425 H   0  0  0  0  0  0  0  0  0  0  0  0
   -4.6861  -17.7296   33.3366 H   0  0  0  0  0  0  0  0  0  0  0  0
   -5.5841  -18.8822   35.3463 H   0  0  0  0  0  0  0  0  0  0  0  0
   -8.4472  -18.7826   34.3805 H   0  0  0  0  0  0  0  0  0  0  0  0
   -7.7203  -17.6408   35.5475 H   0  0  0  0  0  0  0  0  0  0  0  0
   -7.8265  -19.3332   35.9369 H   0  0  0  0  0  0  0  0  0  0  0  0
   -5.2732  -20.6370   33.6007 H   0  0  0  0  0  0  0  0  0  0  0  0
   -5.3841  -22.7208   33.4826 H   0  0  0  0  0  0  0  0  0  0  0  0
   -6.0710  -23.4482   34.8849 H   0  0  0  0  0  0  0  0  0  0  0  0
   -9.3948  -24.1642   32.9667 H   0  0  0  0  0  0  0  0  0  0  0  0
   -8.8564  -26.2722   30.8410 H   0  0  0  0  0  0  0  0  0  0  0  0
   -6.1094  -25.8646   30.2350 H   0  0  0  0  0  0  0  0  0  0  0  0
   -6.4872  -15.6169   30.3010 H   0  0  0  0  0  0  0  0  0  0  0  0
   -3.0959  -16.9860   28.0389 H   0  0  0  0  0  0  0  0  0  0  0  0
   -4.2567  -17.1522   27.8058 H   0  0  0  0  0  0  0  0  0  0  0  0
    0.1920  -13.8908   29.8281 H   0  0  0  0  0  0  0  0  0  0  0  0
   -0.6046  -12.6588   27.4632 H   0  0  0  0  0  0  0  0  0  0  0  0
   -2.4151  -14.1457   26.5932 H   0  0  0  0  0  0  0  0  0  0  0  0
  1  2  1  0
  2  3  1  0
  3  4  1  0
  4  5  1  0
  4  6  1  0
  6  7  1  0
  7  8  2  0
  7  9  1  0
  9 10  1  0
 10 11  1  0
 11 12  2  0
 12 13  1  0
 13 14  2  0
  2 15  1  0
 15 16  1  0
 16 17  2  0
 16 18  1  0
 18 19  1  0
 19 20  2  0
 20 21  1  0
 21 22  2  0
 22 23  1  0
 14 10  1  0
 23 19  1  0
  1 24  1  0
  1 25  1  0
  1 26  1  0
  2 27  1  0
  3 28  1  0
  3 29  1  0
  4 30  1  0
  5 31  1  0
  5 32  1  0
  5 33  1  0
  6 34  1  0
  9 35  1  0
  9 36  1  0
 11 37  1  0
 12 38  1  0
 13 39  1  0
 15 40  1  0
 18 41  1  0
 18 42  1  0
 21 43  1  0
 22 44  1  0
 23 45  1  0
M  END
>  <Energy>  (342) 
428.57389882410052

>  <compound_id>  (342) 
18004

>  <target_id>  (342) 
1

>  <reference_id>  (342) 
116

>  <inspiration_ids>  (342) 
[123, 116]

>  <energy_score>  (342) 
369.6037913410046

>  <distance_score>  (342) 
3.325956176099447

>  <path>  (342) 
/opt/xchem-fragalysis-2/maxwin/BulkDock/SCRATCH/511021/C18004-P116/C18004-P116.minimised.mol

>  <scratch_subdir>  (342) 
/opt/xchem-fragalysis-2/maxwin/BulkDock/SCRATCH/511021/C18004-P116

>  <fragmenstein_runtime>  (342) 
12.416428565979004

>  <fragmenstein_outcome>  (342) 
too moved

>  <fragmenstein_mode>  (342) 
expansion

>  <fragmenstein_error>  (342) 


$$$$
C18005-P123
     RDKit          3D

 42 43  0  0  0  0  0  0  0  0999 V2000
  -10.7951  -14.1179   27.3502 C   0  0  0  0  0  0  0  0  0  0  0  0
   -9.3376  -14.5813   27.1400 C   0  0  0  0  0  0  0  0  0  0  0  0
   -9.4234  -16.1151   26.7760 C   0  0  0  0  0  0  0  0  0  0  0  0
   -8.2679  -16.6504   27.5488 C   0  0  0  0  0  0  0  0  0  0  0  0
   -7.8990  -17.8269   28.5258 C   0  0  0  0  0  0  0  0  0  0  0  0
   -5.9533  -17.4263   29.2974 C   0  0  0  0  0  0  0  0  0  0  0  0
   -4.7556  -16.4493   29.1727 N   0  0  0  0  0  0  0  0  0  0  0  0
   -3.3850  -16.4003   27.9929 C   0  0  0  0  0  0  0  0  0  0  0  0
   -3.1841  -17.2436   27.1849 O   0  0  0  0  0  0  0  0  0  0  0  0
   -2.2793  -15.0504   27.6964 C   0  0  0  0  0  0  0  0  0  0  0  0
   -2.3319  -14.7320   26.0039 N   0  0  0  0  0  0  0  0  0  0  0  0
   -2.7238  -12.8946   25.5651 C   0  0  0  0  0  0  0  0  0  0  0  0
   -3.2413  -12.6021   26.7116 C   0  0  0  0  0  0  0  0  0  0  0  0
   -2.6713  -14.0561   26.3684 N   0  0  0  0  0  0  0  0  0  0  0  0
   -8.4920  -19.5853   28.3167 N   0  0  0  0  0  0  0  0  0  0  0  0
  -10.0415  -20.5648   29.0194 C   0  0  0  0  0  0  0  0  0  0  0  0
  -10.9182  -20.1774   29.7428 O   0  0  0  0  0  0  0  0  0  0  0  0
  -10.3662  -22.0749   28.5381 C   0  0  0  0  0  0  0  0  0  0  0  0
  -11.6904  -22.5910   28.8269 C   0  0  0  0  0  0  0  0  0  0  0  0
  -11.6842  -23.9265   28.5439 C   0  0  0  0  0  0  0  0  0  0  0  0
  -10.4267  -24.1802   28.1146 N   0  0  0  0  0  0  0  0  0  0  0  0
   -9.6000  -23.1101   28.1271 N   0  0  0  0  0  0  0  0  0  0  0  0
  -11.4733  -14.7984   26.8361 H   0  0  0  0  0  0  0  0  0  0  0  0
  -11.0085  -13.1246   26.9496 H   0  0  0  0  0  0  0  0  0  0  0  0
  -11.1154  -14.1918   28.3873 H   0  0  0  0  0  0  0  0  0  0  0  0
   -8.5742  -14.3950   26.4263 H   0  0  0  0  0  0  0  0  0  0  0  0
   -8.7556  -14.1799   27.9877 H   0  0  0  0  0  0  0  0  0  0  0  0
  -10.3333  -16.6044   27.0209 H   0  0  0  0  0  0  0  0  0  0  0  0
   -9.3315  -16.2432   25.7008 H   0  0  0  0  0  0  0  0  0  0  0  0
   -7.8913  -15.8416   28.1490 H   0  0  0  0  0  0  0  0  0  0  0  0
   -7.7502  -16.4481   26.6905 H   0  0  0  0  0  0  0  0  0  0  0  0
   -8.5310  -17.7323   29.2723 H   0  0  0  0  0  0  0  0  0  0  0  0
   -6.3022  -16.4058   29.0258 H   0  0  0  0  0  0  0  0  0  0  0  0
   -6.0324  -17.3026   30.3868 H   0  0  0  0  0  0  0  0  0  0  0  0
   -4.6729  -15.6999   29.8060 H   0  0  0  0  0  0  0  0  0  0  0  0
   -3.2402  -12.5012   24.7057 H   0  0  0  0  0  0  0  0  0  0  0  0
   -3.9037  -12.1509   27.4283 H   0  0  0  0  0  0  0  0  0  0  0  0
   -1.5922  -14.0133   25.7153 H   0  0  0  0  0  0  0  0  0  0  0  0
   -7.8432  -20.2240   27.7829 H   0  0  0  0  0  0  0  0  0  0  0  0
  -12.4988  -22.0291   29.2661 H   0  0  0  0  0  0  0  0  0  0  0  0
  -12.4327  -24.6993   28.6389 H   0  0  0  0  0  0  0  0  0  0  0  0
  -10.0504  -25.0769   27.8275 H   0  0  0  0  0  0  0  0  0  0  0  0
  1  2  1  0
  2  3  1  0
  3  4  1  0
  4  5  1  0
  5  6  1  0
  6  7  1  0
  7  8  1  0
  8  9  2  0
  8 10  1  0
 10 11  2  0
 11 12  1  0
 12 13  2  0
 13 14  1  0
  5 15  1  0
 15 16  1  0
 16 17  2  0
 16 18  1  0
 18 19  1  0
 19 20  2  0
 20 21  1  0
 21 22  1  0
 14 10  1  0
 22 18  2  0
  1 23  1  0
  1 24  1  0
  1 25  1  0
  2 26  1  0
  2 27  1  0
  3 28  1  0
  3 29  1  0
  4 30  1  0
  4 31  1  0
  5 32  1  0
  6 33  1  0
  6 34  1  0
  7 35  1  0
 12 36  1  0
 13 37  1  0
 14 38  1  0
 15 39  1  0
 19 40  1  0
 20 41  1  0
 21 42  1  0
M  END
>  <Energy>  (343) 
1063.3974581177854

>  <compound_id>  (343) 
18005

>  <target_id>  (343) 
1

>  <reference_id>  (343) 
123

>  <inspiration_ids>  (343) 
[123, 116]

>  <energy_score>  (343) 
974.9290554988693

>  <distance_score>  (343) 
4.2101351431714304

>  <path>  (343) 
/opt/xchem-fragalysis-2/maxwin/BulkDock/SCRATCH/511021/C18005-P123/C18005-P123.minimised.mol

>  <scratch_subdir>  (343) 
/opt/xchem-fragalysis-2/maxwin/BulkDock/SCRATCH/511021/C18005-P123

>  <fragmenstein_runtime>  (343) 
23.135552167892456

>  <fragmenstein_outcome>  (343) 
too moved

>  <fragmenstein_mode>  (343) 
expansion

>  <fragmenstein_error>  (343) 


$$$$
C18005-P116
     RDKit          3D

 42 43  0  0  0  0  0  0  0  0999 V2000
   -9.6884  -16.2915   26.6511 C   0  0  0  0  0  0  0  0  0  0  0  0
   -8.6227  -16.6496   27.7037 C   0  0  0  0  0  0  0  0  0  0  0  0
   -8.3444  -18.0994   28.6168 C   0  0  0  0  0  0  0  0  0  0  0  0
   -7.4510  -18.6287   30.3829 C   0  0  0  0  0  0  0  0  0  0  0  0
   -6.8484  -17.6945   31.7160 C   0  0  0  0  0  0  0  0  0  0  0  0
   -5.8805  -16.5912   30.2913 C   0  0  0  0  0  0  0  0  0  0  0  0
   -4.5909  -16.1339   29.7294 N   0  0  0  0  0  0  0  0  0  0  0  0
   -3.8106  -16.5470   28.3426 C   0  0  0  0  0  0  0  0  0  0  0  0
   -4.0723  -17.3535   27.5518 O   0  0  0  0  0  0  0  0  0  0  0  0
   -2.3755  -15.4936   28.2489 C   0  0  0  0  0  0  0  0  0  0  0  0
   -1.6023  -15.2035   29.3042 N   0  0  0  0  0  0  0  0  0  0  0  0
   -0.8158  -14.1140   29.0338 C   0  0  0  0  0  0  0  0  0  0  0  0
   -1.1861  -13.5829   27.8400 C   0  0  0  0  0  0  0  0  0  0  0  0
   -2.0516  -14.5184   27.3079 N   0  0  0  0  0  0  0  0  0  0  0  0
   -6.4607  -18.3492   33.0118 N   0  0  0  0  0  0  0  0  0  0  0  0
   -7.2587  -18.8248   34.0954 C   0  0  0  0  0  0  0  0  0  0  0  0
   -8.4366  -18.7525   34.2911 O   0  0  0  0  0  0  0  0  0  0  0  0
   -6.3891  -19.5854   34.9954 C   0  0  0  0  0  0  0  0  0  0  0  0
   -6.7848  -20.7500   35.6866 C   0  0  0  0  0  0  0  0  0  0  0  0
   -5.6171  -21.3269   36.1138 C   0  0  0  0  0  0  0  0  0  0  0  0
   -4.6193  -20.5360   35.6458 N   0  0  0  0  0  0  0  0  0  0  0  0
   -5.0489  -19.4460   34.9967 N   0  0  0  0  0  0  0  0  0  0  0  0
  -10.1425  -17.1443   26.2239 H   0  0  0  0  0  0  0  0  0  0  0  0
   -9.1676  -15.7665   25.8468 H   0  0  0  0  0  0  0  0  0  0  0  0
  -10.5036  -15.6303   26.9525 H   0  0  0  0  0  0  0  0  0  0  0  0
   -8.2530  -15.7364   28.1537 H   0  0  0  0  0  0  0  0  0  0  0  0
   -7.9180  -16.6071   26.9902 H   0  0  0  0  0  0  0  0  0  0  0  0
   -8.8421  -18.9126   28.1838 H   0  0  0  0  0  0  0  0  0  0  0  0
   -7.3373  -17.8871   28.3027 H   0  0  0  0  0  0  0  0  0  0  0  0
   -6.5350  -18.5207   29.8613 H   0  0  0  0  0  0  0  0  0  0  0  0
   -7.3392  -19.5850   30.7415 H   0  0  0  0  0  0  0  0  0  0  0  0
   -7.6566  -17.2781   32.3604 H   0  0  0  0  0  0  0  0  0  0  0  0
   -6.2639  -16.7579   29.3290 H   0  0  0  0  0  0  0  0  0  0  0  0
   -6.1666  -15.5792   30.6062 H   0  0  0  0  0  0  0  0  0  0  0  0
   -4.1434  -15.3420   30.1386 H   0  0  0  0  0  0  0  0  0  0  0  0
   -0.0864  -13.7454   29.7429 H   0  0  0  0  0  0  0  0  0  0  0  0
   -0.8737  -12.7117   27.2793 H   0  0  0  0  0  0  0  0  0  0  0  0
   -2.4782  -14.4048   26.4062 H   0  0  0  0  0  0  0  0  0  0  0  0
   -5.4817  -18.5181   33.2252 H   0  0  0  0  0  0  0  0  0  0  0  0
   -7.7857  -21.1471   35.7584 H   0  0  0  0  0  0  0  0  0  0  0  0
   -5.4075  -22.2451   36.6415 H   0  0  0  0  0  0  0  0  0  0  0  0
   -3.6200  -20.6898   35.7074 H   0  0  0  0  0  0  0  0  0  0  0  0
  1  2  1  0
  2  3  1  0
  3  4  1  0
  4  5  1  0
  5  6  1  0
  6  7  1  0
  7  8  1  0
  8  9  2  0
  8 10  1  0
 10 11  2  0
 11 12  1  0
 12 13  2  0
 13 14  1  0
  5 15  1  0
 15 16  1  0
 16 17  2  0
 16 18  1  0
 18 19  1  0
 19 20  2  0
 20 21  1  0
 21 22  1  0
 14 10  1  0
 22 18  2  0
  1 23  1  0
  1 24  1  0
  1 25  1  0
  2 26  1  0
  2 27  1  0
  3 28  1  0
  3 29  1  0
  4 30  1  0
  4 31  1  0
  5 32  1  0
  6 33  1  0
  6 34  1  0
  7 35  1  0
 12 36  1  0
 13 37  1  0
 14 38  1  0
 15 39  1  0
 19 40  1  0
 20 41  1  0
 21 42  1  0
M  END
>  <Energy>  (344) 
437.26021727144786

>  <compound_id>  (344) 
18005

>  <target_id>  (344) 
1

>  <reference_id>  (344) 
116

>  <inspiration_ids>  (344) 
[123, 116]

>  <energy_score>  (344) 
348.79181465252316

>  <distance_score>  (344) 
5.651661039837637

>  <path>  (344) 
/opt/xchem-fragalysis-2/maxwin/BulkDock/SCRATCH/511021/C18005-P116/C18005-P116.minimised.mol

>  <scratch_subdir>  (344) 
/opt/xchem-fragalysis-2/maxwin/BulkDock/SCRATCH/511021/C18005-P116

>  <fragmenstein_runtime>  (344) 
20.733330488204956

>  <fragmenstein_outcome>  (344) 
too moved

>  <fragmenstein_mode>  (344) 
expansion

>  <fragmenstein_error>  (344) 


$$$$
C18006-P123
     RDKit          3D

 45 46  0  0  0  0  0  0  0  0999 V2000
   -9.0728  -16.9171   37.7314 C   0  0  0  0  0  0  0  0  0  0  0  0
   -8.2573  -17.0899   36.4593 C   0  0  0  0  0  0  0  0  0  0  0  0
   -8.9700  -16.8093   35.1432 C   0  0  0  0  0  0  0  0  0  0  0  0
   -8.0058  -16.3530   34.0442 C   0  0  0  0  0  0  0  0  0  0  0  0
   -7.0357  -17.3596   33.6006 C   0  0  0  0  0  0  0  0  0  0  0  0
   -5.9926  -16.6680   32.1168 C   0  0  0  0  0  0  0  0  0  0  0  0
   -6.2170  -15.0138   31.1196 N   0  0  0  0  0  0  0  0  0  0  0  0
   -5.1283  -14.0980   30.2860 C   0  0  0  0  0  0  0  0  0  0  0  0
   -3.8850  -14.3235   30.0144 O   0  0  0  0  0  0  0  0  0  0  0  0
   -5.4649  -12.8477   29.8927 C   0  0  0  0  0  0  0  0  0  0  0  0
   -5.3282  -12.1187   28.8568 N   0  0  0  0  0  0  0  0  0  0  0  0
   -3.9144  -12.0728   28.7871 C   0  0  0  0  0  0  0  0  0  0  0  0
   -3.4452  -11.8869   30.0211 C   0  0  0  0  0  0  0  0  0  0  0  0
   -4.7090  -11.9573   30.6218 N   0  0  0  0  0  0  0  0  0  0  0  0
   -7.8299  -18.7230   33.5810 N   0  0  0  0  0  0  0  0  0  0  0  0
   -7.3454  -20.1399   33.4471 C   0  0  0  0  0  0  0  0  0  0  0  0
   -6.2464  -20.5717   33.4156 O   0  0  0  0  0  0  0  0  0  0  0  0
   -8.4285  -21.2756   33.1634 C   0  0  0  0  0  0  0  0  0  0  0  0
   -9.9311  -21.0488   32.2545 C   0  0  0  0  0  0  0  0  0  0  0  0
  -10.5360  -22.3255   32.1006 C   0  0  0  0  0  0  0  0  0  0  0  0
   -9.6383  -23.2909   32.6806 N   0  0  0  0  0  0  0  0  0  0  0  0
   -9.7926  -24.7271   32.5750 C   0  0  0  0  0  0  0  0  0  0  0  0
   -8.3744  -22.7204   33.2721 N   0  0  0  0  0  0  0  0  0  0  0  0
   -8.6480  -17.5269   38.5360 H   0  0  0  0  0  0  0  0  0  0  0  0
   -9.0405  -15.8837   38.0852 H   0  0  0  0  0  0  0  0  0  0  0  0
  -10.1208  -17.1971   37.5937 H   0  0  0  0  0  0  0  0  0  0  0  0
   -7.8761  -18.1155   36.4228 H   0  0  0  0  0  0  0  0  0  0  0  0
   -7.3842  -16.4476   36.5320 H   0  0  0  0  0  0  0  0  0  0  0  0
   -9.5664  -17.6630   34.8594 H   0  0  0  0  0  0  0  0  0  0  0  0
   -9.7550  -16.0798   35.1720 H   0  0  0  0  0  0  0  0  0  0  0  0
   -7.3543  -15.5619   34.4143 H   0  0  0  0  0  0  0  0  0  0  0  0
   -8.5888  -16.0103   33.1896 H   0  0  0  0  0  0  0  0  0  0  0  0
   -6.4403  -17.5100   34.4559 H   0  0  0  0  0  0  0  0  0  0  0  0
   -4.9836  -16.6962   32.4883 H   0  0  0  0  0  0  0  0  0  0  0  0
   -6.2842  -17.4221   31.4244 H   0  0  0  0  0  0  0  0  0  0  0  0
   -7.0947  -14.4888   31.2178 H   0  0  0  0  0  0  0  0  0  0  0  0
   -3.5384  -11.9794   27.7875 H   0  0  0  0  0  0  0  0  0  0  0  0
   -2.5247  -11.4542   30.3791 H   0  0  0  0  0  0  0  0  0  0  0  0
   -5.0546  -11.5116   31.4462 H   0  0  0  0  0  0  0  0  0  0  0  0
   -8.8244  -18.7055   33.4898 H   0  0  0  0  0  0  0  0  0  0  0  0
  -10.3589  -20.0843   32.1461 H   0  0  0  0  0  0  0  0  0  0  0  0
  -11.4883  -22.6517   31.7040 H   0  0  0  0  0  0  0  0  0  0  0  0
   -8.8471  -25.1507   32.2339 H   0  0  0  0  0  0  0  0  0  0  0  0
  -10.0712  -25.1208   33.5522 H   0  0  0  0  0  0  0  0  0  0  0  0
  -10.5769  -24.9483   31.8472 H   0  0  0  0  0  0  0  0  0  0  0  0
  1  2  1  0
  2  3  1  0
  3  4  1  0
  4  5  1  0
  5  6  1  0
  6  7  1  0
  7  8  1  0
  8  9  2  0
  8 10  1  0
 10 11  2  0
 11 12  1  0
 12 13  2  0
 13 14  1  0
  5 15  1  0
 15 16  1  0
 16 17  2  0
 16 18  1  0
 18 19  1  0
 19 20  2  0
 20 21  1  0
 21 22  1  0
 21 23  1  0
 14 10  1  0
 23 18  2  0
  1 24  1  0
  1 25  1  0
  1 26  1  0
  2 27  1  0
  2 28  1  0
  3 29  1  0
  3 30  1  0
  4 31  1  0
  4 32  1  0
  5 33  1  0
  6 34  1  0
  6 35  1  0
  7 36  1  0
 12 37  1  0
 13 38  1  0
 14 39  1  0
 15 40  1  0
 19 41  1  0
 20 42  1  0
 22 43  1  0
 22 44  1  0
 22 45  1  0
M  END
>  <Energy>  (345) 
384.2289146260502

>  <compound_id>  (345) 
18006

>  <target_id>  (345) 
1

>  <reference_id>  (345) 
123

>  <inspiration_ids>  (345) 
[123, 116]

>  <energy_score>  (345) 
280.99239765268135

>  <distance_score>  (345) 
3.9162781022037505

>  <path>  (345) 
/opt/xchem-fragalysis-2/maxwin/BulkDock/SCRATCH/511021/C18006-P123/C18006-P123.minimised.mol

>  <scratch_subdir>  (345) 
/opt/xchem-fragalysis-2/maxwin/BulkDock/SCRATCH/511021/C18006-P123

>  <fragmenstein_runtime>  (345) 
25.244258642196655

>  <fragmenstein_outcome>  (345) 
too moved

>  <fragmenstein_mode>  (345) 
expansion

>  <fragmenstein_error>  (345) 


$$$$
C18006-P116
     RDKit          3D

 45 46  0  0  0  0  0  0  0  0999 V2000
   -7.7706  -17.1490   36.3846 C   0  0  0  0  0  0  0  0  0  0  0  0
   -7.3858  -18.3281   35.5223 C   0  0  0  0  0  0  0  0  0  0  0  0
   -5.9238  -18.3985   35.0423 C   0  0  0  0  0  0  0  0  0  0  0  0
   -5.5028  -17.5597   33.8227 C   0  0  0  0  0  0  0  0  0  0  0  0
   -6.4228  -17.5908   32.5896 C   0  0  0  0  0  0  0  0  0  0  0  0
   -6.0026  -16.6086   30.7167 C   0  0  0  0  0  0  0  0  0  0  0  0
   -4.5767  -16.0869   29.8455 N   0  0  0  0  0  0  0  0  0  0  0  0
   -3.9251  -16.5770   28.3933 C   0  0  0  0  0  0  0  0  0  0  0  0
   -4.2455  -17.4419   27.6772 O   0  0  0  0  0  0  0  0  0  0  0  0
   -2.4688  -15.5171   28.2091 C   0  0  0  0  0  0  0  0  0  0  0  0
   -1.6964  -15.1949   29.2604 N   0  0  0  0  0  0  0  0  0  0  0  0
   -0.9023  -14.1161   28.9747 C   0  0  0  0  0  0  0  0  0  0  0  0
   -1.2646  -13.6131   27.7685 C   0  0  0  0  0  0  0  0  0  0  0  0
   -2.1090  -14.5759   27.2432 N   0  0  0  0  0  0  0  0  0  0  0  0
   -7.4304  -19.1164   32.2940 N   0  0  0  0  0  0  0  0  0  0  0  0
   -7.8885  -20.6596   33.3987 C   0  0  0  0  0  0  0  0  0  0  0  0
   -7.5114  -20.9622   34.5162 O   0  0  0  0  0  0  0  0  0  0  0  0
   -9.3809  -21.8660   32.5149 C   0  0  0  0  0  0  0  0  0  0  0  0
  -10.8729  -21.6612   31.4138 C   0  0  0  0  0  0  0  0  0  0  0  0
  -11.5871  -22.8962   31.6284 C   0  0  0  0  0  0  0  0  0  0  0  0
  -11.4921  -24.2171   32.8774 N   0  0  0  0  0  0  0  0  0  0  0  0
  -13.1195  -24.8185   34.2381 C   0  0  0  0  0  0  0  0  0  0  0  0
   -9.7779  -23.5792   32.8462 N   0  0  0  0  0  0  0  0  0  0  0  0
   -8.8366  -17.1957   36.6318 H   0  0  0  0  0  0  0  0  0  0  0  0
   -7.2199  -17.1557   37.3293 H   0  0  0  0  0  0  0  0  0  0  0  0
   -7.5960  -16.2157   35.8579 H   0  0  0  0  0  0  0  0  0  0  0  0
   -8.0830  -18.3616   34.6834 H   0  0  0  0  0  0  0  0  0  0  0  0
   -7.5786  -19.2150   36.1375 H   0  0  0  0  0  0  0  0  0  0  0  0
   -5.2646  -18.1483   35.8824 H   0  0  0  0  0  0  0  0  0  0  0  0
   -5.6829  -19.4391   34.8009 H   0  0  0  0  0  0  0  0  0  0  0  0
   -4.4703  -17.8172   33.5736 H   0  0  0  0  0  0  0  0  0  0  0  0
   -5.4542  -16.5252   34.1534 H   0  0  0  0  0  0  0  0  0  0  0  0
   -7.2772  -16.9885   32.9331 H   0  0  0  0  0  0  0  0  0  0  0  0
   -6.1851  -17.2972   29.9057 H   0  0  0  0  0  0  0  0  0  0  0  0
   -6.2774  -15.5479   30.8045 H   0  0  0  0  0  0  0  0  0  0  0  0
   -4.1067  -15.2564   30.1588 H   0  0  0  0  0  0  0  0  0  0  0  0
   -0.1782  -13.7332   29.6817 H   0  0  0  0  0  0  0  0  0  0  0  0
   -0.9486  -12.7551   27.1893 H   0  0  0  0  0  0  0  0  0  0  0  0
   -2.5089  -14.4802   26.3291 H   0  0  0  0  0  0  0  0  0  0  0  0
   -7.8202  -19.1763   31.4190 H   0  0  0  0  0  0  0  0  0  0  0  0
  -11.0863  -20.9162   30.6848 H   0  0  0  0  0  0  0  0  0  0  0  0
  -12.4313  -22.9406   30.9783 H   0  0  0  0  0  0  0  0  0  0  0  0
  -13.3260  -26.0444   34.1748 H   0  0  0  0  0  0  0  0  0  0  0  0
  -13.0149  -24.6985   35.4833 H   0  0  0  0  0  0  0  0  0  0  0  0
  -14.1350  -24.6297   33.8001 H   0  0  0  0  0  0  0  0  0  0  0  0
  1  2  1  0
  2  3  1  0
  3  4  1  0
  4  5  1  0
  5  6  1  0
  6  7  1  0
  7  8  1  0
  8  9  2  0
  8 10  1  0
 10 11  2  0
 11 12  1  0
 12 13  2  0
 13 14  1  0
  5 15  1  0
 15 16  1  0
 16 17  2  0
 16 18  1  0
 18 19  1  0
 19 20  2  0
 20 21  1  0
 21 22  1  0
 21 23  1  0
 14 10  1  0
 23 18  2  0
  1 24  1  0
  1 25  1  0
  1 26  1  0
  2 27  1  0
  2 28  1  0
  3 29  1  0
  3 30  1  0
  4 31  1  0
  4 32  1  0
  5 33  1  0
  6 34  1  0
  6 35  1  0
  7 36  1  0
 12 37  1  0
 13 38  1  0
 14 39  1  0
 15 40  1  0
 19 41  1  0
 20 42  1  0
 22 43  1  0
 22 44  1  0
 22 45  1  0
M  END
>  <Energy>  (346) 
1139.1054747965154

>  <compound_id>  (346) 
18006

>  <target_id>  (346) 
1

>  <reference_id>  (346) 
116

>  <inspiration_ids>  (346) 
[123, 116]

>  <energy_score>  (346) 
1035.8689578231406

>  <distance_score>  (346) 
2.180411998955509

>  <path>  (346) 
/opt/xchem-fragalysis-2/maxwin/BulkDock/SCRATCH/511021/C18006-P116/C18006-P116.minimised.mol

>  <scratch_subdir>  (346) 
/opt/xchem-fragalysis-2/maxwin/BulkDock/SCRATCH/511021/C18006-P116

>  <fragmenstein_runtime>  (346) 
24.746938943862915

>  <fragmenstein_outcome>  (346) 
too moved

>  <fragmenstein_mode>  (346) 
expansion

>  <fragmenstein_error>  (346) 


$$$$
C18007-P123
     RDKit          3D

 42 43  0  0  0  0  0  0  0  0999 V2000
  -11.4035  -21.7799   29.9401 C   0  0  0  0  0  0  0  0  0  0  0  0
  -10.1306  -20.6708   29.3863 C   0  0  0  0  0  0  0  0  0  0  0  0
   -9.6058  -21.3748   27.9006 N   0  0  0  0  0  0  0  0  0  0  0  0
   -9.6685  -22.8973   28.0584 C   0  0  0  0  0  0  0  0  0  0  0  0
   -8.8467  -23.6619   28.3930 O   0  0  0  0  0  0  0  0  0  0  0  0
  -10.9782  -23.6063   27.8443 C   0  0  0  0  0  0  0  0  0  0  0  0
  -11.9954  -23.4894   26.8785 C   0  0  0  0  0  0  0  0  0  0  0  0
  -12.8889  -24.5022   27.1559 C   0  0  0  0  0  0  0  0  0  0  0  0
  -12.4339  -25.1118   28.2785 N   0  0  0  0  0  0  0  0  0  0  0  0
  -11.2599  -24.6425   28.6748 N   0  0  0  0  0  0  0  0  0  0  0  0
   -7.9014  -20.0671   28.0308 C   0  0  0  0  0  0  0  0  0  0  0  0
   -8.4337  -18.3970   28.0087 C   0  0  0  0  0  0  0  0  0  0  0  0
   -6.0153  -19.6612   27.0023 C   0  0  0  0  0  0  0  0  0  0  0  0
   -5.2697  -18.0259   27.9322 N   0  0  0  0  0  0  0  0  0  0  0  0
   -3.6436  -16.9692   27.7051 C   0  0  0  0  0  0  0  0  0  0  0  0
   -2.7500  -17.0560   26.8529 O   0  0  0  0  0  0  0  0  0  0  0  0
   -3.4123  -15.5918   29.3107 C   0  0  0  0  0  0  0  0  0  0  0  0
   -4.5947  -13.9640   30.0194 C   0  0  0  0  0  0  0  0  0  0  0  0
   -5.9346  -14.2832   30.1246 N   0  0  0  0  0  0  0  0  0  0  0  0
   -6.6769  -13.1570   30.2453 C   0  0  0  0  0  0  0  0  0  0  0  0
   -5.8363  -12.1027   30.2771 C   0  0  0  0  0  0  0  0  0  0  0  0
   -4.5616  -12.5555   29.9462 N   0  0  0  0  0  0  0  0  0  0  0  0
  -11.8535  -21.3572   30.8483 H   0  0  0  0  0  0  0  0  0  0  0  0
  -11.0711  -22.7619   30.2650 H   0  0  0  0  0  0  0  0  0  0  0  0
  -12.2019  -21.8641   29.1938 H   0  0  0  0  0  0  0  0  0  0  0  0
  -11.1156  -20.2961   29.2492 H   0  0  0  0  0  0  0  0  0  0  0  0
   -9.8898  -20.9388   30.4117 H   0  0  0  0  0  0  0  0  0  0  0  0
  -12.0504  -22.8038   26.0492 H   0  0  0  0  0  0  0  0  0  0  0  0
  -13.7870  -24.8317   26.6549 H   0  0  0  0  0  0  0  0  0  0  0  0
  -12.8429  -25.8739   28.8103 H   0  0  0  0  0  0  0  0  0  0  0  0
   -7.6184  -20.9779   27.4812 H   0  0  0  0  0  0  0  0  0  0  0  0
   -8.3187  -18.1000   28.9887 H   0  0  0  0  0  0  0  0  0  0  0  0
   -7.8677  -17.4742   27.8126 H   0  0  0  0  0  0  0  0  0  0  0  0
   -9.2917  -18.1634   27.4271 H   0  0  0  0  0  0  0  0  0  0  0  0
   -5.6323  -20.6544   27.2404 H   0  0  0  0  0  0  0  0  0  0  0  0
   -5.8754  -19.4913   25.9652 H   0  0  0  0  0  0  0  0  0  0  0  0
   -5.7732  -17.7574   28.7951 H   0  0  0  0  0  0  0  0  0  0  0  0
   -2.5801  -14.9556   28.9352 H   0  0  0  0  0  0  0  0  0  0  0  0
   -3.0050  -15.9480   30.2456 H   0  0  0  0  0  0  0  0  0  0  0  0
   -7.7498  -13.1690   30.3720 H   0  0  0  0  0  0  0  0  0  0  0  0
   -6.1296  -11.0907   30.4603 H   0  0  0  0  0  0  0  0  0  0  0  0
   -3.7366  -12.0297   29.7051 H   0  0  0  0  0  0  0  0  0  0  0  0
  1  2  1  0
  2  3  1  0
  3  4  1  0
  4  5  2  0
  4  6  1  0
  6  7  1  0
  7  8  2  0
  8  9  1  0
  9 10  1  0
  3 11  1  0
 11 12  1  0
 11 13  1  0
 13 14  1  0
 14 15  1  0
 15 16  2  0
 15 17  1  0
 17 18  1  0
 18 19  2  0
 19 20  1  0
 20 21  2  0
 21 22  1  0
 10  6  2  0
 22 18  1  0
  1 23  1  0
  1 24  1  0
  1 25  1  0
  2 26  1  0
  2 27  1  0
  7 28  1  0
  8 29  1  0
  9 30  1  0
 11 31  1  0
 12 32  1  0
 12 33  1  0
 12 34  1  0
 13 35  1  0
 13 36  1  0
 14 37  1  0
 17 38  1  0
 17 39  1  0
 20 40  1  0
 21 41  1  0
 22 42  1  0
M  END
>  <Energy>  (347) 
961.29971610046414

>  <compound_id>  (347) 
18007

>  <target_id>  (347) 
1

>  <reference_id>  (347) 
123

>  <inspiration_ids>  (347) 
[123, 116]

>  <energy_score>  (347) 
864.4344055775915

>  <distance_score>  (347) 
5.301158957053053

>  <path>  (347) 
/opt/xchem-fragalysis-2/maxwin/BulkDock/SCRATCH/511021/C18007-P123/C18007-P123.minimised.mol

>  <scratch_subdir>  (347) 
/opt/xchem-fragalysis-2/maxwin/BulkDock/SCRATCH/511021/C18007-P123

>  <fragmenstein_runtime>  (347) 
24.39964723587036

>  <fragmenstein_outcome>  (347) 
too moved

>  <fragmenstein_mode>  (347) 
expansion

>  <fragmenstein_error>  (347) 


$$$$
C18007-P116
     RDKit          3D

 42 43  0  0  0  0  0  0  0  0999 V2000
   -2.9460  -20.6203   31.8279 C   0  0  0  0  0  0  0  0  0  0  0  0
   -3.1684  -21.8631   30.8412 C   0  0  0  0  0  0  0  0  0  0  0  0
   -4.5392  -21.8781   31.1530 N   0  0  0  0  0  0  0  0  0  0  0  0
   -4.8040  -22.8050   32.5495 C   0  0  0  0  0  0  0  0  0  0  0  0
   -5.0642  -23.9782   32.6706 O   0  0  0  0  0  0  0  0  0  0  0  0
   -4.8634  -22.0059   33.8713 C   0  0  0  0  0  0  0  0  0  0  0  0
   -5.8320  -22.5008   34.8294 C   0  0  0  0  0  0  0  0  0  0  0  0
   -6.4485  -21.4243   35.4109 C   0  0  0  0  0  0  0  0  0  0  0  0
   -5.7884  -20.3546   34.9535 N   0  0  0  0  0  0  0  0  0  0  0  0
   -4.9444  -20.6489   33.9817 N   0  0  0  0  0  0  0  0  0  0  0  0
   -4.7765  -22.4134   29.1273 C   0  0  0  0  0  0  0  0  0  0  0  0
   -4.5066  -23.8201   28.8093 C   0  0  0  0  0  0  0  0  0  0  0  0
   -5.8421  -21.2970   27.5866 C   0  0  0  0  0  0  0  0  0  0  0  0
   -5.2223  -19.2701   27.5996 N   0  0  0  0  0  0  0  0  0  0  0  0
   -3.4175  -18.5748   27.4451 C   0  0  0  0  0  0  0  0  0  0  0  0
   -2.3802  -19.1973   27.2183 O   0  0  0  0  0  0  0  0  0  0  0  0
   -3.1045  -17.0417   27.5526 C   0  0  0  0  0  0  0  0  0  0  0  0
   -1.9585  -15.7889   27.9410 C   0  0  0  0  0  0  0  0  0  0  0  0
   -1.1000  -15.5984   28.9413 N   0  0  0  0  0  0  0  0  0  0  0  0
   -0.6092  -14.3222   28.9658 C   0  0  0  0  0  0  0  0  0  0  0  0
   -1.2100  -13.5997   27.9872 C   0  0  0  0  0  0  0  0  0  0  0  0
   -2.0038  -14.5168   27.3372 N   0  0  0  0  0  0  0  0  0  0  0  0
   -2.6797  -19.5628   32.0330 H   0  0  0  0  0  0  0  0  0  0  0  0
   -1.9427  -20.7648   32.0491 H   0  0  0  0  0  0  0  0  0  0  0  0
   -3.6985  -20.5509   32.5470 H   0  0  0  0  0  0  0  0  0  0  0  0
   -2.5499  -22.5434   31.3492 H   0  0  0  0  0  0  0  0  0  0  0  0
   -2.8614  -21.3174   29.9956 H   0  0  0  0  0  0  0  0  0  0  0  0
   -6.1536  -23.5218   34.9081 H   0  0  0  0  0  0  0  0  0  0  0  0
   -7.2848  -21.3306   36.0739 H   0  0  0  0  0  0  0  0  0  0  0  0
   -5.9311  -19.3784   35.1846 H   0  0  0  0  0  0  0  0  0  0  0  0
   -5.8093  -22.6949   28.8440 H   0  0  0  0  0  0  0  0  0  0  0  0
   -3.5751  -23.8827   29.2439 H   0  0  0  0  0  0  0  0  0  0  0  0
   -4.2589  -23.9543   27.7567 H   0  0  0  0  0  0  0  0  0  0  0  0
   -5.1755  -24.5725   29.2053 H   0  0  0  0  0  0  0  0  0  0  0  0
   -6.9354  -21.5376   27.6106 H   0  0  0  0  0  0  0  0  0  0  0  0
   -5.4252  -21.7580   26.6762 H   0  0  0  0  0  0  0  0  0  0  0  0
   -5.8581  -18.5416   27.8700 H   0  0  0  0  0  0  0  0  0  0  0  0
   -2.8533  -16.9454   26.4773 H   0  0  0  0  0  0  0  0  0  0  0  0
   -3.9896  -16.7194   28.0628 H   0  0  0  0  0  0  0  0  0  0  0  0
    0.1275  -14.0097   29.6929 H   0  0  0  0  0  0  0  0  0  0  0  0
   -1.1217  -12.5760   27.6518 H   0  0  0  0  0  0  0  0  0  0  0  0
   -2.4947  -14.2913   26.4910 H   0  0  0  0  0  0  0  0  0  0  0  0
  1  2  1  0
  2  3  1  0
  3  4  1  0
  4  5  2  0
  4  6  1  0
  6  7  1  0
  7  8  2  0
  8  9  1  0
  9 10  1  0
  3 11  1  0
 11 12  1  0
 11 13  1  0
 13 14  1  0
 14 15  1  0
 15 16  2  0
 15 17  1  0
 17 18  1  0
 18 19  2  0
 19 20  1  0
 20 21  2  0
 21 22  1  0
 10  6  2  0
 22 18  1  0
  1 23  1  0
  1 24  1  0
  1 25  1  0
  2 26  1  0
  2 27  1  0
  7 28  1  0
  8 29  1  0
  9 30  1  0
 11 31  1  0
 12 32  1  0
 12 33  1  0
 12 34  1  0
 13 35  1  0
 13 36  1  0
 14 37  1  0
 17 38  1  0
 17 39  1  0
 20 40  1  0
 21 41  1  0
 22 42  1  0
M  END
>  <Energy>  (348) 
801.81734783509887

>  <compound_id>  (348) 
18007

>  <target_id>  (348) 
1

>  <reference_id>  (348) 
116

>  <inspiration_ids>  (348) 
[123, 116]

>  <energy_score>  (348) 
704.9520373122161

>  <distance_score>  (348) 
5.237518560869514

>  <path>  (348) 
/opt/xchem-fragalysis-2/maxwin/BulkDock/SCRATCH/511021/C18007-P116/C18007-P116.minimised.mol

>  <scratch_subdir>  (348) 
/opt/xchem-fragalysis-2/maxwin/BulkDock/SCRATCH/511021/C18007-P116

>  <fragmenstein_runtime>  (348) 
16.601195335388184

>  <fragmenstein_outcome>  (348) 
too moved

>  <fragmenstein_mode>  (348) 
expansion

>  <fragmenstein_error>  (348) 


$$$$
C18008-P123
     RDKit          3D

 45 46  0  0  0  0  0  0  0  0999 V2000
   -7.8078  -17.7659   35.9658 C   0  0  0  0  0  0  0  0  0  0  0  0
   -8.5927  -17.1408   34.8287 C   0  0  0  0  0  0  0  0  0  0  0  0
   -8.3951  -17.7210   33.4997 N   0  0  0  0  0  0  0  0  0  0  0  0
   -8.5680  -19.1981   33.5672 C   0  0  0  0  0  0  0  0  0  0  0  0
   -7.7545  -20.0759   33.7635 O   0  0  0  0  0  0  0  0  0  0  0  0
  -10.2717  -19.7652   33.1327 C   0  0  0  0  0  0  0  0  0  0  0  0
  -10.6736  -20.7994   32.1454 C   0  0  0  0  0  0  0  0  0  0  0  0
  -11.8863  -21.3425   32.5149 C   0  0  0  0  0  0  0  0  0  0  0  0
  -12.2460  -20.6177   33.6003 N   0  0  0  0  0  0  0  0  0  0  0  0
  -13.4160  -20.8492   34.4091 C   0  0  0  0  0  0  0  0  0  0  0  0
  -11.4737  -19.5156   33.7967 N   0  0  0  0  0  0  0  0  0  0  0  0
   -6.9219  -16.7083   33.5291 C   0  0  0  0  0  0  0  0  0  0  0  0
   -6.6190  -15.5835   34.5095 C   0  0  0  0  0  0  0  0  0  0  0  0
   -5.9040  -16.4042   31.8159 C   0  0  0  0  0  0  0  0  0  0  0  0
   -6.0981  -14.6347   30.9951 N   0  0  0  0  0  0  0  0  0  0  0  0
   -4.8948  -13.6030   30.1929 C   0  0  0  0  0  0  0  0  0  0  0  0
   -3.7201  -13.8891   29.9046 O   0  0  0  0  0  0  0  0  0  0  0  0
   -5.1195  -12.2319   29.9268 C   0  0  0  0  0  0  0  0  0  0  0  0
   -3.5573  -11.4792   30.5382 C   0  0  0  0  0  0  0  0  0  0  0  0
   -3.3559  -10.4386   31.4886 N   0  0  0  0  0  0  0  0  0  0  0  0
   -2.0744   -9.9602   31.4326 C   0  0  0  0  0  0  0  0  0  0  0  0
   -1.4676  -10.5937   30.3755 C   0  0  0  0  0  0  0  0  0  0  0  0
   -2.3824  -11.5243   29.9175 N   0  0  0  0  0  0  0  0  0  0  0  0
   -7.9509  -17.2041   36.8928 H   0  0  0  0  0  0  0  0  0  0  0  0
   -6.7674  -17.8388   35.6950 H   0  0  0  0  0  0  0  0  0  0  0  0
   -8.0433  -18.7974   36.1608 H   0  0  0  0  0  0  0  0  0  0  0  0
   -9.6246  -17.4465   35.0623 H   0  0  0  0  0  0  0  0  0  0  0  0
   -8.7849  -16.0981   34.8990 H   0  0  0  0  0  0  0  0  0  0  0  0
  -10.1378  -21.2013   31.3301 H   0  0  0  0  0  0  0  0  0  0  0  0
  -12.4698  -22.1715   32.1350 H   0  0  0  0  0  0  0  0  0  0  0  0
  -13.5664  -19.9995   35.0787 H   0  0  0  0  0  0  0  0  0  0  0  0
  -14.2822  -20.9610   33.7521 H   0  0  0  0  0  0  0  0  0  0  0  0
  -13.2518  -21.7670   34.9761 H   0  0  0  0  0  0  0  0  0  0  0  0
   -7.6572  -16.0186   33.0780 H   0  0  0  0  0  0  0  0  0  0  0  0
   -7.0523  -14.6911   34.1751 H   0  0  0  0  0  0  0  0  0  0  0  0
   -5.6033  -15.2351   34.4014 H   0  0  0  0  0  0  0  0  0  0  0  0
   -6.8678  -15.6633   35.5713 H   0  0  0  0  0  0  0  0  0  0  0  0
   -6.4353  -17.3831   31.6422 H   0  0  0  0  0  0  0  0  0  0  0  0
   -5.6941  -16.7176   30.7898 H   0  0  0  0  0  0  0  0  0  0  0  0
   -6.9917  -14.1534   31.0237 H   0  0  0  0  0  0  0  0  0  0  0  0
   -5.3346  -12.0190   28.9258 H   0  0  0  0  0  0  0  0  0  0  0  0
   -5.5343  -11.7556   30.8265 H   0  0  0  0  0  0  0  0  0  0  0  0
   -1.7340   -9.1671   32.0881 H   0  0  0  0  0  0  0  0  0  0  0  0
   -0.5091  -10.4687   29.8886 H   0  0  0  0  0  0  0  0  0  0  0  0
   -2.2072  -12.3508   29.3911 H   0  0  0  0  0  0  0  0  0  0  0  0
  1  2  1  0
  2  3  1  0
  3  4  1  0
  4  5  2  0
  4  6  1  0
  6  7  1  0
  7  8  2  0
  8  9  1  0
  9 10  1  0
  9 11  1  0
  3 12  1  0
 12 13  1  0
 12 14  1  0
 14 15  1  0
 15 16  1  0
 16 17  2  0
 16 18  1  0
 18 19  1  0
 19 20  2  0
 20 21  1  0
 21 22  2  0
 22 23  1  0
 11  6  2  0
 23 19  1  0
  1 24  1  0
  1 25  1  0
  1 26  1  0
  2 27  1  0
  2 28  1  0
  7 29  1  0
  8 30  1  0
 10 31  1  0
 10 32  1  0
 10 33  1  0
 12 34  1  0
 13 35  1  0
 13 36  1  0
 13 37  1  0
 14 38  1  0
 14 39  1  0
 15 40  1  0
 18 41  1  0
 18 42  1  0
 21 43  1  0
 22 44  1  0
 23 45  1  0
M  END
>  <Energy>  (349) 
543.34754507850266

>  <compound_id>  (349) 
18008

>  <target_id>  (349) 
1

>  <reference_id>  (349) 
123

>  <inspiration_ids>  (349) 
[123, 116]

>  <energy_score>  (349) 
446.1684963858387

>  <distance_score>  (349) 
4.1319147740715945

>  <path>  (349) 
/opt/xchem-fragalysis-2/maxwin/BulkDock/SCRATCH/511021/C18008-P123/C18008-P123.minimised.mol

>  <scratch_subdir>  (349) 
/opt/xchem-fragalysis-2/maxwin/BulkDock/SCRATCH/511021/C18008-P123

>  <fragmenstein_runtime>  (349) 
19.173957586288452

>  <fragmenstein_outcome>  (349) 
too moved

>  <fragmenstein_mode>  (349) 
expansion

>  <fragmenstein_error>  (349) 


$$$$
C18008-P116
     RDKit          3D

 45 46  0  0  0  0  0  0  0  0999 V2000
   -5.5092  -19.5743   36.0160 C   0  0  0  0  0  0  0  0  0  0  0  0
   -5.4052  -19.8064   34.4980 C   0  0  0  0  0  0  0  0  0  0  0  0
   -6.5878  -19.5119   33.6501 N   0  0  0  0  0  0  0  0  0  0  0  0
   -7.8008  -20.1461   34.2360 C   0  0  0  0  0  0  0  0  0  0  0  0
   -8.6079  -19.7101   35.0230 O   0  0  0  0  0  0  0  0  0  0  0  0
   -8.1710  -21.5909   33.6641 C   0  0  0  0  0  0  0  0  0  0  0  0
   -9.5795  -21.9146   32.4412 C   0  0  0  0  0  0  0  0  0  0  0  0
  -10.0650  -23.2815   32.5617 C   0  0  0  0  0  0  0  0  0  0  0  0
   -8.9661  -23.8899   33.0249 N   0  0  0  0  0  0  0  0  0  0  0  0
   -9.0280  -25.1387   32.3842 C   0  0  0  0  0  0  0  0  0  0  0  0
   -7.8460  -22.9753   33.9987 N   0  0  0  0  0  0  0  0  0  0  0  0
   -5.9757  -17.8702   33.7877 C   0  0  0  0  0  0  0  0  0  0  0  0
   -4.5008  -17.4246   33.9757 C   0  0  0  0  0  0  0  0  0  0  0  0
   -6.7137  -16.8461   32.5668 C   0  0  0  0  0  0  0  0  0  0  0  0
   -5.9803  -16.1182   30.9323 N   0  0  0  0  0  0  0  0  0  0  0  0
   -4.6408  -16.4373   30.1047 C   0  0  0  0  0  0  0  0  0  0  0  0
   -4.0378  -17.1536   30.6549 O   0  0  0  0  0  0  0  0  0  0  0  0
   -3.6101  -15.8409   28.4932 C   0  0  0  0  0  0  0  0  0  0  0  0
   -1.9578  -15.0821   28.4502 C   0  0  0  0  0  0  0  0  0  0  0  0
   -0.9986  -15.1946   29.3628 N   0  0  0  0  0  0  0  0  0  0  0  0
   -0.1212  -14.1571   29.1814 C   0  0  0  0  0  0  0  0  0  0  0  0
   -0.5516  -13.3411   28.1726 C   0  0  0  0  0  0  0  0  0  0  0  0
   -1.6724  -13.9539   27.6773 N   0  0  0  0  0  0  0  0  0  0  0  0
   -6.1473  -20.3326   36.4825 H   0  0  0  0  0  0  0  0  0  0  0  0
   -5.9067  -18.5984   36.3008 H   0  0  0  0  0  0  0  0  0  0  0  0
   -4.5145  -19.6576   36.4599 H   0  0  0  0  0  0  0  0  0  0  0  0
   -4.4273  -19.6323   34.0453 H   0  0  0  0  0  0  0  0  0  0  0  0
   -5.3810  -20.9093   34.4475 H   0  0  0  0  0  0  0  0  0  0  0  0
  -10.2268  -21.2130   31.9534 H   0  0  0  0  0  0  0  0  0  0  0  0
  -10.9343  -23.7385   32.1110 H   0  0  0  0  0  0  0  0  0  0  0  0
   -8.2069  -25.6189   31.9328 H   0  0  0  0  0  0  0  0  0  0  0  0
   -9.8360  -25.6799   32.8396 H   0  0  0  0  0  0  0  0  0  0  0  0
   -9.3474  -24.8735   31.4113 H   0  0  0  0  0  0  0  0  0  0  0  0
   -6.5399  -17.5224   34.6661 H   0  0  0  0  0  0  0  0  0  0  0  0
   -4.4284  -16.3514   33.8512 H   0  0  0  0  0  0  0  0  0  0  0  0
   -3.7660  -17.8309   33.2861 H   0  0  0  0  0  0  0  0  0  0  0  0
   -4.1316  -17.6335   34.9837 H   0  0  0  0  0  0  0  0  0  0  0  0
   -7.4798  -16.1989   33.0363 H   0  0  0  0  0  0  0  0  0  0  0  0
   -7.2460  -17.7237   32.1542 H   0  0  0  0  0  0  0  0  0  0  0  0
   -6.4540  -15.3888   30.4319 H   0  0  0  0  0  0  0  0  0  0  0  0
   -3.2591  -15.1630   29.3632 H   0  0  0  0  0  0  0  0  0  0  0  0
   -3.2709  -16.7849   27.9927 H   0  0  0  0  0  0  0  0  0  0  0  0
    0.7596  -14.0496   29.8003 H   0  0  0  0  0  0  0  0  0  0  0  0
   -0.1531  -12.4367   27.7349 H   0  0  0  0  0  0  0  0  0  0  0  0
   -2.2070  -13.6126   26.8913 H   0  0  0  0  0  0  0  0  0  0  0  0
  1  2  1  0
  2  3  1  0
  3  4  1  0
  4  5  2  0
  4  6  1  0
  6  7  1  0
  7  8  2  0
  8  9  1  0
  9 10  1  0
  9 11  1  0
  3 12  1  0
 12 13  1  0
 12 14  1  0
 14 15  1  0
 15 16  1  0
 16 17  2  0
 16 18  1  0
 18 19  1  0
 19 20  2  0
 20 21  1  0
 21 22  2  0
 22 23  1  0
 11  6  2  0
 23 19  1  0
  1 24  1  0
  1 25  1  0
  1 26  1  0
  2 27  1  0
  2 28  1  0
  7 29  1  0
  8 30  1  0
 10 31  1  0
 10 32  1  0
 10 33  1  0
 12 34  1  0
 13 35  1  0
 13 36  1  0
 13 37  1  0
 14 38  1  0
 14 39  1  0
 15 40  1  0
 18 41  1  0
 18 42  1  0
 21 43  1  0
 22 44  1  0
 23 45  1  0
M  END
>  <Energy>  (350) 
649.1856080273667

>  <compound_id>  (350) 
18008

>  <target_id>  (350) 
1

>  <reference_id>  (350) 
116

>  <inspiration_ids>  (350) 
[123, 116]

>  <energy_score>  (350) 
552.0065593347031

>  <distance_score>  (350) 
2.716693595386326

>  <path>  (350) 
/opt/xchem-fragalysis-2/maxwin/BulkDock/SCRATCH/511021/C18008-P116/C18008-P116.minimised.mol

>  <scratch_subdir>  (350) 
/opt/xchem-fragalysis-2/maxwin/BulkDock/SCRATCH/511021/C18008-P116

>  <fragmenstein_runtime>  (350) 
18.707419633865356

>  <fragmenstein_outcome>  (350) 
too moved

>  <fragmenstein_mode>  (350) 
expansion

>  <fragmenstein_error>  (350) 


$$$$
C18009-P123
     RDKit          3D

 44 45  0  0  0  0  0  0  0  0999 V2000
   -7.5266  -17.0219   34.0082 C   0  0  0  0  0  0  0  0  0  0  0  0
   -6.6149  -16.3181   33.1725 O   0  0  0  0  0  0  0  0  0  0  0  0
   -6.0256  -17.0385   32.0502 C   0  0  0  0  0  0  0  0  0  0  0  0
   -6.0559  -16.2091   30.3208 C   0  0  0  0  0  0  0  0  0  0  0  0
   -6.6391  -16.8554   28.5619 N   0  0  0  0  0  0  0  0  0  0  0  0
   -6.3035  -15.0383   28.6513 C   0  0  0  0  0  0  0  0  0  0  0  0
   -6.3383  -13.5705   29.4862 C   0  0  0  0  0  0  0  0  0  0  0  0
   -5.8017  -12.3022   28.9186 N   0  0  0  0  0  0  0  0  0  0  0  0
   -4.5739  -12.1808   29.5340 C   0  0  0  0  0  0  0  0  0  0  0  0
   -5.0603  -12.0620   30.7552 C   0  0  0  0  0  0  0  0  0  0  0  0
   -5.5288  -13.3438   30.4898 N   0  0  0  0  0  0  0  0  0  0  0  0
   -8.2489  -17.5808   27.9027 C   0  0  0  0  0  0  0  0  0  0  0  0
   -9.1651  -17.0608   27.4108 O   0  0  0  0  0  0  0  0  0  0  0  0
   -8.3082  -19.3734   28.2986 N   0  0  0  0  0  0  0  0  0  0  0  0
   -9.7001  -20.8183   27.9271 C   0  0  0  0  0  0  0  0  0  0  0  0
  -10.7436  -21.0358   29.4825 C   0  0  0  0  0  0  0  0  0  0  0  0
  -10.3976  -22.5403   27.9226 C   0  0  0  0  0  0  0  0  0  0  0  0
   -9.9914  -23.8447   28.3443 C   0  0  0  0  0  0  0  0  0  0  0  0
  -10.9825  -24.7230   27.9882 C   0  0  0  0  0  0  0  0  0  0  0  0
  -11.8644  -23.9794   27.2862 N   0  0  0  0  0  0  0  0  0  0  0  0
  -12.9041  -24.5100   26.4404 C   0  0  0  0  0  0  0  0  0  0  0  0
  -11.6121  -22.6629   27.3304 N   0  0  0  0  0  0  0  0  0  0  0  0
   -7.3978  -18.1051   33.9748 H   0  0  0  0  0  0  0  0  0  0  0  0
   -8.5480  -16.7440   33.7484 H   0  0  0  0  0  0  0  0  0  0  0  0
   -7.3868  -16.6861   35.0392 H   0  0  0  0  0  0  0  0  0  0  0  0
   -6.5022  -17.9902   32.0089 H   0  0  0  0  0  0  0  0  0  0  0  0
   -5.0099  -17.0496   32.4047 H   0  0  0  0  0  0  0  0  0  0  0  0
   -6.1264  -15.2127   30.6702 H   0  0  0  0  0  0  0  0  0  0  0  0
   -5.0456  -16.3221   29.9647 H   0  0  0  0  0  0  0  0  0  0  0  0
   -7.4423  -15.0265   28.4390 H   0  0  0  0  0  0  0  0  0  0  0  0
   -6.7046  -14.2488   27.8659 H   0  0  0  0  0  0  0  0  0  0  0  0
   -3.6073  -11.9724   29.0990 H   0  0  0  0  0  0  0  0  0  0  0  0
   -5.6932  -11.3738   31.3130 H   0  0  0  0  0  0  0  0  0  0  0  0
   -4.7874  -13.9381   30.2537 H   0  0  0  0  0  0  0  0  0  0  0  0
   -7.5169  -19.6091   28.7602 H   0  0  0  0  0  0  0  0  0  0  0  0
   -8.7522  -21.4932   27.7452 H   0  0  0  0  0  0  0  0  0  0  0  0
  -11.7724  -20.7208   29.2484 H   0  0  0  0  0  0  0  0  0  0  0  0
  -10.9807  -22.0515   29.8313 H   0  0  0  0  0  0  0  0  0  0  0  0
  -10.3839  -20.6419   30.4123 H   0  0  0  0  0  0  0  0  0  0  0  0
   -9.1237  -24.1872   28.8655 H   0  0  0  0  0  0  0  0  0  0  0  0
  -11.0781  -25.7928   28.1092 H   0  0  0  0  0  0  0  0  0  0  0  0
  -12.5234  -25.4047   25.9394 H   0  0  0  0  0  0  0  0  0  0  0  0
  -13.7537  -24.7758   27.0723 H   0  0  0  0  0  0  0  0  0  0  0  0
  -13.1769  -23.7709   25.6850 H   0  0  0  0  0  0  0  0  0  0  0  0
  1  2  1  0
  2  3  1  0
  3  4  1  0
  4  5  1  0
  5  6  1  0
  6  7  1  0
  7  8  2  0
  8  9  1  0
  9 10  2  0
 10 11  1  0
  5 12  1  0
 12 13  2  0
 12 14  1  0
 14 15  1  0
 15 16  1  0
 15 17  1  0
 17 18  1  0
 18 19  2  0
 19 20  1  0
 20 21  1  0
 20 22  1  0
 11  7  1  0
 22 17  2  0
  1 23  1  0
  1 24  1  0
  1 25  1  0
  3 26  1  0
  3 27  1  0
  4 28  1  0
  4 29  1  0
  6 30  1  0
  6 31  1  0
  9 32  1  0
 10 33  1  0
 11 34  1  0
 14 35  1  0
 15 36  1  0
 16 37  1  0
 16 38  1  0
 16 39  1  0
 18 40  1  0
 19 41  1  0
 21 42  1  0
 21 43  1  0
 21 44  1  0
M  END
>  <Energy>  (351) 
919.50483000825727

>  <compound_id>  (351) 
18009

>  <target_id>  (351) 
1

>  <reference_id>  (351) 
123

>  <inspiration_ids>  (351) 
[123, 116]

>  <energy_score>  (351) 
918.4862458172197

>  <distance_score>  (351) 
4.9907772805997705

>  <path>  (351) 
/opt/xchem-fragalysis-2/maxwin/BulkDock/SCRATCH/511021/C18009-P123/C18009-P123.minimised.mol

>  <scratch_subdir>  (351) 
/opt/xchem-fragalysis-2/maxwin/BulkDock/SCRATCH/511021/C18009-P123

>  <fragmenstein_runtime>  (351) 
17.98353147506714

>  <fragmenstein_outcome>  (351) 
too moved

>  <fragmenstein_mode>  (351) 
expansion

>  <fragmenstein_error>  (351) 


$$$$
C18009-P116
     RDKit          3D

 44 45  0  0  0  0  0  0  0  0999 V2000
   -7.9314  -17.4005   35.7212 C   0  0  0  0  0  0  0  0  0  0  0  0
   -7.0953  -16.8917   34.6829 O   0  0  0  0  0  0  0  0  0  0  0  0
   -7.6955  -17.1556   33.3938 C   0  0  0  0  0  0  0  0  0  0  0  0
   -6.6232  -16.9720   32.2415 C   0  0  0  0  0  0  0  0  0  0  0  0
   -6.4338  -18.0987   30.7677 N   0  0  0  0  0  0  0  0  0  0  0  0
   -5.6229  -16.3484   30.1083 C   0  0  0  0  0  0  0  0  0  0  0  0
   -3.7288  -15.4657   29.9321 C   0  0  0  0  0  0  0  0  0  0  0  0
   -2.4098  -15.6393   30.7756 N   0  0  0  0  0  0  0  0  0  0  0  0
   -1.1509  -15.1590   30.1215 C   0  0  0  0  0  0  0  0  0  0  0  0
   -1.4817  -14.7006   28.8905 C   0  0  0  0  0  0  0  0  0  0  0  0
   -2.7026  -15.2942   28.6142 N   0  0  0  0  0  0  0  0  0  0  0  0
   -7.4627  -18.7926   30.3784 C   0  0  0  0  0  0  0  0  0  0  0  0
   -8.2974  -18.5373   29.5608 O   0  0  0  0  0  0  0  0  0  0  0  0
   -7.3412  -20.3032   31.7117 N   0  0  0  0  0  0  0  0  0  0  0  0
   -8.9329  -21.7786   32.1662 C   0  0  0  0  0  0  0  0  0  0  0  0
  -10.6841  -21.2885   31.2429 C   0  0  0  0  0  0  0  0  0  0  0  0
   -9.2944  -23.7593   32.4977 C   0  0  0  0  0  0  0  0  0  0  0  0
  -10.5138  -24.2152   32.4997 C   0  0  0  0  0  0  0  0  0  0  0  0
  -10.3054  -25.4686   33.0396 C   0  0  0  0  0  0  0  0  0  0  0  0
   -9.4209  -26.0595   32.1483 N   0  0  0  0  0  0  0  0  0  0  0  0
  -10.1813  -27.5958   31.4727 C   0  0  0  0  0  0  0  0  0  0  0  0
   -8.9968  -24.9412   31.6039 N   0  0  0  0  0  0  0  0  0  0  0  0
   -7.5571  -17.0436   36.6831 H   0  0  0  0  0  0  0  0  0  0  0  0
   -7.8952  -18.4946   35.7239 H   0  0  0  0  0  0  0  0  0  0  0  0
   -8.9661  -17.0669   35.6040 H   0  0  0  0  0  0  0  0  0  0  0  0
   -8.5210  -16.4594   33.2600 H   0  0  0  0  0  0  0  0  0  0  0  0
   -8.0332  -18.1955   33.4403 H   0  0  0  0  0  0  0  0  0  0  0  0
   -6.1760  -17.8189   32.8295 H   0  0  0  0  0  0  0  0  0  0  0  0
   -5.6810  -16.5250   32.5349 H   0  0  0  0  0  0  0  0  0  0  0  0
   -6.0923  -15.5163   30.6379 H   0  0  0  0  0  0  0  0  0  0  0  0
   -6.1034  -16.2054   29.1907 H   0  0  0  0  0  0  0  0  0  0  0  0
   -0.2296  -15.1410   30.6889 H   0  0  0  0  0  0  0  0  0  0  0  0
   -0.8904  -14.2325   28.1215 H   0  0  0  0  0  0  0  0  0  0  0  0
   -2.7767  -16.0024   27.9091 H   0  0  0  0  0  0  0  0  0  0  0  0
   -6.5525  -20.2093   32.3336 H   0  0  0  0  0  0  0  0  0  0  0  0
   -8.6401  -21.4797   33.2859 H   0  0  0  0  0  0  0  0  0  0  0  0
  -11.4939  -22.0368   31.3234 H   0  0  0  0  0  0  0  0  0  0  0  0
  -10.9082  -20.2955   31.5672 H   0  0  0  0  0  0  0  0  0  0  0  0
  -10.7297  -21.2498   30.1312 H   0  0  0  0  0  0  0  0  0  0  0  0
  -11.3390  -23.6399   32.2211 H   0  0  0  0  0  0  0  0  0  0  0  0
  -10.9845  -26.2632   33.3427 H   0  0  0  0  0  0  0  0  0  0  0  0
   -9.6045  -27.7190   30.5365 H   0  0  0  0  0  0  0  0  0  0  0  0
  -10.3647  -28.4687   32.1138 H   0  0  0  0  0  0  0  0  0  0  0  0
  -11.2763  -27.5323   31.6319 H   0  0  0  0  0  0  0  0  0  0  0  0
  1  2  1  0
  2  3  1  0
  3  4  1  0
  4  5  1  0
  5  6  1  0
  6  7  1  0
  7  8  2  0
  8  9  1  0
  9 10  2  0
 10 11  1  0
  5 12  1  0
 12 13  2  0
 12 14  1  0
 14 15  1  0
 15 16  1  0
 15 17  1  0
 17 18  1  0
 18 19  2  0
 19 20  1  0
 20 21  1  0
 20 22  1  0
 11  7  1  0
 22 17  2  0
  1 23  1  0
  1 24  1  0
  1 25  1  0
  3 26  1  0
  3 27  1  0
  4 28  1  0
  4 29  1  0
  6 30  1  0
  6 31  1  0
  9 32  1  0
 10 33  1  0
 11 34  1  0
 14 35  1  0
 15 36  1  0
 16 37  1  0
 16 38  1  0
 16 39  1  0
 18 40  1  0
 19 41  1  0
 21 42  1  0
 21 43  1  0
 21 44  1  0
M  END
>  <Energy>  (352) 
1048.3526509938731

>  <compound_id>  (352) 
18009

>  <target_id>  (352) 
1

>  <reference_id>  (352) 
116

>  <inspiration_ids>  (352) 
[123, 116]

>  <energy_score>  (352) 
1047.3340668028345

>  <distance_score>  (352) 
2.7552553512527274

>  <path>  (352) 
/opt/xchem-fragalysis-2/maxwin/BulkDock/SCRATCH/511021/C18009-P116/C18009-P116.minimised.mol

>  <scratch_subdir>  (352) 
/opt/xchem-fragalysis-2/maxwin/BulkDock/SCRATCH/511021/C18009-P116

>  <fragmenstein_runtime>  (352) 
14.344063758850098

>  <fragmenstein_outcome>  (352) 
too moved

>  <fragmenstein_mode>  (352) 
expansion

>  <fragmenstein_error>  (352) 


$$$$
C48751-P123
     RDKit          3D

 29 30  0  0  0  0  0  0  0  0999 V2000
   -7.8410  -16.8191   35.1333 C   0  0  0  0  0  0  0  0  0  0  0  0
   -8.1098  -17.2166   33.7185 N   0  0  0  0  0  0  0  0  0  0  0  0
   -7.8549  -15.7500   33.4845 C   0  0  0  0  0  0  0  0  0  0  0  0
   -8.5410  -14.5686   32.2643 C   0  0  0  0  0  0  0  0  0  0  0  0
   -9.8381  -13.9849   32.1590 C   0  0  0  0  0  0  0  0  0  0  0  0
   -9.7558  -12.9756   31.2411 N   0  0  0  0  0  0  0  0  0  0  0  0
   -8.4527  -12.8481   30.8957 C   0  0  0  0  0  0  0  0  0  0  0  0
   -7.7125  -13.7369   31.5015 N   0  0  0  0  0  0  0  0  0  0  0  0
   -7.3535  -18.3273   33.3775 C   0  0  0  0  0  0  0  0  0  0  0  0
   -6.2606  -18.3983   32.8885 O   0  0  0  0  0  0  0  0  0  0  0  0
   -7.8998  -19.8490   33.7738 C   0  0  0  0  0  0  0  0  0  0  0  0
   -8.6570  -21.0119   32.9496 N   0  0  0  0  0  0  0  0  0  0  0  0
  -10.0863  -20.9913   32.2151 C   0  0  0  0  0  0  0  0  0  0  0  0
  -10.5835  -22.3180   32.0707 C   0  0  0  0  0  0  0  0  0  0  0  0
   -9.5865  -23.2592   32.6996 C   0  0  0  0  0  0  0  0  0  0  0  0
   -8.4413  -22.6181   33.2410 N   0  0  0  0  0  0  0  0  0  0  0  0
   -6.9631  -16.2829   35.4707 H   0  0  0  0  0  0  0  0  0  0  0  0
   -7.7675  -17.7607   35.6978 H   0  0  0  0  0  0  0  0  0  0  0  0
   -8.7512  -16.3659   35.5546 H   0  0  0  0  0  0  0  0  0  0  0  0
   -6.9295  -15.9900   32.9469 H   0  0  0  0  0  0  0  0  0  0  0  0
   -7.1678  -15.1666   34.1512 H   0  0  0  0  0  0  0  0  0  0  0  0
  -10.7656  -14.2459   32.6545 H   0  0  0  0  0  0  0  0  0  0  0  0
  -10.5195  -12.4006   30.9142 H   0  0  0  0  0  0  0  0  0  0  0  0
   -8.0981  -12.0951   30.2190 H   0  0  0  0  0  0  0  0  0  0  0  0
   -8.0052  -19.8956   34.8328 H   0  0  0  0  0  0  0  0  0  0  0  0
   -6.9468  -20.3821   33.6150 H   0  0  0  0  0  0  0  0  0  0  0  0
  -10.5532  -20.0416   32.2744 H   0  0  0  0  0  0  0  0  0  0  0  0
  -11.5631  -22.6125   31.7168 H   0  0  0  0  0  0  0  0  0  0  0  0
   -9.6634  -24.3370   32.7889 H   0  0  0  0  0  0  0  0  0  0  0  0
  1  2  1  0
  2  3  1  0
  3  4  1  0
  4  5  2  0
  5  6  1  0
  6  7  1  0
  7  8  2  0
  2  9  1  0
  9 10  2  0
  9 11  1  0
 11 12  1  0
 12 13  1  0
 13 14  2  0
 14 15  1  0
 15 16  2  0
  8  4  1  0
 16 12  1  0
  1 17  1  0
  1 18  1  0
  1 19  1  0
  3 20  1  0
  3 21  1  0
  5 22  1  0
  6 23  1  0
  7 24  1  0
 11 25  1  0
 11 26  1  0
 13 27  1  0
 14 28  1  0
 15 29  1  0
M  END
>  <Energy>  (353) 
248.45179987930939

>  <compound_id>  (353) 
48751

>  <target_id>  (353) 
1

>  <reference_id>  (353) 
123

>  <inspiration_ids>  (353) 
[123, 116]

>  <energy_score>  (353) 
209.18715546413569

>  <distance_score>  (353) 
6.505180688523975

>  <path>  (353) 
/opt/xchem-fragalysis-2/maxwin/BulkDock/SCRATCH/511021/C48751-P123/C48751-P123.minimised.mol

>  <scratch_subdir>  (353) 
/opt/xchem-fragalysis-2/maxwin/BulkDock/SCRATCH/511021/C48751-P123

>  <fragmenstein_runtime>  (353) 
13.453067064285278

>  <fragmenstein_outcome>  (353) 
too moved

>  <fragmenstein_mode>  (353) 
expansion

>  <fragmenstein_error>  (353) 


$$$$
C48751-P116
     RDKit          3D

 29 30  0  0  0  0  0  0  0  0999 V2000
   -0.8910  -17.1637   35.5120 C   0  0  0  0  0  0  0  0  0  0  0  0
   -2.2434  -16.8901   34.9192 N   0  0  0  0  0  0  0  0  0  0  0  0
   -1.5187  -15.6359   34.4048 C   0  0  0  0  0  0  0  0  0  0  0  0
   -0.7294  -15.6006   33.1041 C   0  0  0  0  0  0  0  0  0  0  0  0
   -0.1274  -16.5631   32.3238 C   0  0  0  0  0  0  0  0  0  0  0  0
    0.3867  -15.9133   31.2309 N   0  0  0  0  0  0  0  0  0  0  0  0
    0.1525  -14.5857   31.3964 C   0  0  0  0  0  0  0  0  0  0  0  0
   -0.4997  -14.3645   32.5136 N   0  0  0  0  0  0  0  0  0  0  0  0
   -2.7197  -18.0454   34.2233 C   0  0  0  0  0  0  0  0  0  0  0  0
   -2.5942  -18.3683   33.0767 O   0  0  0  0  0  0  0  0  0  0  0  0
   -3.5321  -18.9468   35.1722 C   0  0  0  0  0  0  0  0  0  0  0  0
   -4.8855  -19.3005   34.7324 N   0  0  0  0  0  0  0  0  0  0  0  0
   -5.9351  -18.4441   34.5170 C   0  0  0  0  0  0  0  0  0  0  0  0
   -7.0569  -19.2279   34.3740 C   0  0  0  0  0  0  0  0  0  0  0  0
   -6.5971  -20.5445   34.5318 C   0  0  0  0  0  0  0  0  0  0  0  0
   -5.2872  -20.5921   34.7760 N   0  0  0  0  0  0  0  0  0  0  0  0
   -0.5937  -16.4686   36.3109 H   0  0  0  0  0  0  0  0  0  0  0  0
   -0.0908  -17.3999   34.8016 H   0  0  0  0  0  0  0  0  0  0  0  0
   -1.0087  -18.1133   36.0576 H   0  0  0  0  0  0  0  0  0  0  0  0
   -1.0722  -14.9903   35.1798 H   0  0  0  0  0  0  0  0  0  0  0  0
   -2.4025  -15.0337   34.1391 H   0  0  0  0  0  0  0  0  0  0  0  0
   -0.0799  -17.6359   32.4043 H   0  0  0  0  0  0  0  0  0  0  0  0
    0.8138  -16.3427   30.4184 H   0  0  0  0  0  0  0  0  0  0  0  0
    0.4639  -13.8379   30.6786 H   0  0  0  0  0  0  0  0  0  0  0  0
   -3.6481  -18.5040   36.1617 H   0  0  0  0  0  0  0  0  0  0  0  0
   -2.9679  -19.8743   35.2921 H   0  0  0  0  0  0  0  0  0  0  0  0
   -5.7968  -17.3736   34.4831 H   0  0  0  0  0  0  0  0  0  0  0  0
   -8.0660  -18.8944   34.1823 H   0  0  0  0  0  0  0  0  0  0  0  0
   -7.1578  -21.4686   34.4968 H   0  0  0  0  0  0  0  0  0  0  0  0
  1  2  1  0
  2  3  1  0
  3  4  1  0
  4  5  2  0
  5  6  1  0
  6  7  1  0
  7  8  2  0
  2  9  1  0
  9 10  2  0
  9 11  1  0
 11 12  1  0
 12 13  1  0
 13 14  2  0
 14 15  1  0
 15 16  2  0
  8  4  1  0
 16 12  1  0
  1 17  1  0
  1 18  1  0
  1 19  1  0
  3 20  1  0
  3 21  1  0
  5 22  1  0
  6 23  1  0
  7 24  1  0
 11 25  1  0
 11 26  1  0
 13 27  1  0
 14 28  1  0
 15 29  1  0
M  END
>  <Energy>  (354) 
101.10721392931696

>  <compound_id>  (354) 
48751

>  <target_id>  (354) 
1

>  <reference_id>  (354) 
116

>  <inspiration_ids>  (354) 
[123, 116]

>  <energy_score>  (354) 
61.842569514139655

>  <distance_score>  (354) 
6.5353469896391845

>  <path>  (354) 
/opt/xchem-fragalysis-2/maxwin/BulkDock/SCRATCH/511021/C48751-P116/C48751-P116.minimised.mol

>  <scratch_subdir>  (354) 
/opt/xchem-fragalysis-2/maxwin/BulkDock/SCRATCH/511021/C48751-P116

>  <fragmenstein_runtime>  (354) 
9.010961532592773

>  <fragmenstein_outcome>  (354) 
too moved

>  <fragmenstein_mode>  (354) 
expansion

>  <fragmenstein_error>  (354) 


$$$$
C18010-P123
     RDKit          3D

 29 30  0  0  0  0  0  0  0  0999 V2000
   -7.1491  -16.2124   34.8618 C   0  0  0  0  0  0  0  0  0  0  0  0
   -7.9564  -16.6190   33.7636 N   0  0  0  0  0  0  0  0  0  0  0  0
   -6.4328  -16.4631   32.9064 C   0  0  0  0  0  0  0  0  0  0  0  0
   -6.0318  -15.5286   31.2522 C   0  0  0  0  0  0  0  0  0  0  0  0
   -5.7173  -15.8288   29.9845 N   0  0  0  0  0  0  0  0  0  0  0  0
   -6.2119  -14.5920   29.3822 C   0  0  0  0  0  0  0  0  0  0  0  0
   -5.7701  -13.5845   30.1408 C   0  0  0  0  0  0  0  0  0  0  0  0
   -6.6616  -14.1374   30.9756 N   0  0  0  0  0  0  0  0  0  0  0  0
   -8.7037  -17.7575   34.1164 C   0  0  0  0  0  0  0  0  0  0  0  0
   -8.4462  -18.9122   33.9990 O   0  0  0  0  0  0  0  0  0  0  0  0
  -10.0062  -17.1694   34.8547 C   0  0  0  0  0  0  0  0  0  0  0  0
  -11.2920  -17.8482   35.2481 N   0  0  0  0  0  0  0  0  0  0  0  0
  -11.9980  -17.5464   36.3996 C   0  0  0  0  0  0  0  0  0  0  0  0
  -13.1663  -18.2676   36.3654 C   0  0  0  0  0  0  0  0  0  0  0  0
  -13.0781  -19.0324   35.2000 C   0  0  0  0  0  0  0  0  0  0  0  0
  -11.9704  -18.7734   34.5157 N   0  0  0  0  0  0  0  0  0  0  0  0
   -6.4178  -15.4543   34.6741 H   0  0  0  0  0  0  0  0  0  0  0  0
   -6.8728  -17.1247   35.4046 H   0  0  0  0  0  0  0  0  0  0  0  0
   -7.8139  -15.7672   35.6064 H   0  0  0  0  0  0  0  0  0  0  0  0
   -6.4877  -17.4488   32.4387 H   0  0  0  0  0  0  0  0  0  0  0  0
   -7.1182  -15.6119   32.8587 H   0  0  0  0  0  0  0  0  0  0  0  0
   -6.7882  -14.5118   28.4700 H   0  0  0  0  0  0  0  0  0  0  0  0
   -5.3412  -12.5944   30.0394 H   0  0  0  0  0  0  0  0  0  0  0  0
   -7.1987  -13.6889   31.6808 H   0  0  0  0  0  0  0  0  0  0  0  0
   -9.5988  -16.9379   35.8469 H   0  0  0  0  0  0  0  0  0  0  0  0
  -10.3181  -16.2290   34.3901 H   0  0  0  0  0  0  0  0  0  0  0  0
  -11.6097  -16.8565   37.1311 H   0  0  0  0  0  0  0  0  0  0  0  0
  -13.9529  -18.2673   37.1047 H   0  0  0  0  0  0  0  0  0  0  0  0
  -13.7700  -19.7701   34.8162 H   0  0  0  0  0  0  0  0  0  0  0  0
  1  2  1  0
  2  3  1  0
  3  4  1  0
  4  5  2  0
  5  6  1  0
  6  7  2  0
  7  8  1  0
  2  9  1  0
  9 10  2  0
  9 11  1  0
 11 12  1  0
 12 13  1  0
 13 14  2  0
 14 15  1  0
 15 16  2  0
  8  4  1  0
 16 12  1  0
  1 17  1  0
  1 18  1  0
  1 19  1  0
  3 20  1  0
  3 21  1  0
  6 22  1  0
  7 23  1  0
  8 24  1  0
 11 25  1  0
 11 26  1  0
 13 27  1  0
 14 28  1  0
 15 29  1  0
M  END
>  <Energy>  (355) 
312.71336713156967

>  <compound_id>  (355) 
18010

>  <target_id>  (355) 
1

>  <reference_id>  (355) 
123

>  <inspiration_ids>  (355) 
[123, 116]

>  <energy_score>  (355) 
269.00299021429726

>  <distance_score>  (355) 
6.693598271856158

>  <path>  (355) 
/opt/xchem-fragalysis-2/maxwin/BulkDock/SCRATCH/511021/C18010-P123/C18010-P123.minimised.mol

>  <scratch_subdir>  (355) 
/opt/xchem-fragalysis-2/maxwin/BulkDock/SCRATCH/511021/C18010-P123

>  <fragmenstein_runtime>  (355) 
9.01115870475769

>  <fragmenstein_outcome>  (355) 
too moved

>  <fragmenstein_mode>  (355) 
expansion

>  <fragmenstein_error>  (355) 


$$$$
C18010-P116
     RDKit          3D

 29 30  0  0  0  0  0  0  0  0999 V2000
   -7.5038  -16.4656   33.3831 C   0  0  0  0  0  0  0  0  0  0  0  0
   -7.5939  -17.4743   32.3447 N   0  0  0  0  0  0  0  0  0  0  0  0
   -6.0047  -16.4661   31.6218 C   0  0  0  0  0  0  0  0  0  0  0  0
   -4.8498  -16.2586   29.9197 C   0  0  0  0  0  0  0  0  0  0  0  0
   -4.4172  -16.7606   28.6171 N   0  0  0  0  0  0  0  0  0  0  0  0
   -2.9077  -16.4404   27.9235 C   0  0  0  0  0  0  0  0  0  0  0  0
   -2.4368  -15.3288   28.5669 C   0  0  0  0  0  0  0  0  0  0  0  0
   -3.3687  -15.2185   29.7838 N   0  0  0  0  0  0  0  0  0  0  0  0
   -7.7203  -18.8552   32.9777 C   0  0  0  0  0  0  0  0  0  0  0  0
   -6.8490  -19.6564   33.2914 O   0  0  0  0  0  0  0  0  0  0  0  0
   -9.7492  -19.3191   33.1104 C   0  0  0  0  0  0  0  0  0  0  0  0
  -10.7739  -20.2945   31.6715 N   0  0  0  0  0  0  0  0  0  0  0  0
  -10.9413  -20.9335   30.0278 C   0  0  0  0  0  0  0  0  0  0  0  0
  -11.8719  -21.8435   29.6098 C   0  0  0  0  0  0  0  0  0  0  0  0
  -11.9813  -22.0775   30.8747 C   0  0  0  0  0  0  0  0  0  0  0  0
  -12.3002  -20.8805   31.3629 N   0  0  0  0  0  0  0  0  0  0  0  0
   -6.5494  -16.5122   33.9197 H   0  0  0  0  0  0  0  0  0  0  0  0
   -8.2098  -16.7936   34.1592 H   0  0  0  0  0  0  0  0  0  0  0  0
   -7.9143  -15.5167   33.0382 H   0  0  0  0  0  0  0  0  0  0  0  0
   -6.3162  -17.0408   30.6753 H   0  0  0  0  0  0  0  0  0  0  0  0
   -6.3986  -15.4492   31.2971 H   0  0  0  0  0  0  0  0  0  0  0  0
   -2.5767  -17.0948   27.1240 H   0  0  0  0  0  0  0  0  0  0  0  0
   -1.5367  -14.7308   28.5687 H   0  0  0  0  0  0  0  0  0  0  0  0
   -2.8288  -15.5348   30.5644 H   0  0  0  0  0  0  0  0  0  0  0  0
  -10.4245  -18.5750   33.5218 H   0  0  0  0  0  0  0  0  0  0  0  0
   -9.6141  -20.1408   33.8294 H   0  0  0  0  0  0  0  0  0  0  0  0
  -10.4590  -20.4528   29.2705 H   0  0  0  0  0  0  0  0  0  0  0  0
  -11.8074  -22.3697   28.6706 H   0  0  0  0  0  0  0  0  0  0  0  0
  -11.6848  -22.8977   31.4996 H   0  0  0  0  0  0  0  0  0  0  0  0
  1  2  1  0
  2  3  1  0
  3  4  1  0
  4  5  2  0
  5  6  1  0
  6  7  2  0
  7  8  1  0
  2  9  1  0
  9 10  2  0
  9 11  1  0
 11 12  1  0
 12 13  1  0
 13 14  2  0
 14 15  1  0
 15 16  2  0
  8  4  1  0
 16 12  1  0
  1 17  1  0
  1 18  1  0
  1 19  1  0
  3 20  1  0
  3 21  1  0
  6 22  1  0
  7 23  1  0
  8 24  1  0
 11 25  1  0
 11 26  1  0
 13 27  1  0
 14 28  1  0
 15 29  1  0
M  END
>  <Energy>  (356) 
837.49023565861182

>  <compound_id>  (356) 
18010

>  <target_id>  (356) 
1

>  <reference_id>  (356) 
116

>  <inspiration_ids>  (356) 
[123, 116]

>  <energy_score>  (356) 
793.7798587413354

>  <distance_score>  (356) 
4.113887484614174

>  <path>  (356) 
/opt/xchem-fragalysis-2/maxwin/BulkDock/SCRATCH/511021/C18010-P116/C18010-P116.minimised.mol

>  <scratch_subdir>  (356) 
/opt/xchem-fragalysis-2/maxwin/BulkDock/SCRATCH/511021/C18010-P116

>  <fragmenstein_runtime>  (356) 
6.808743715286255

>  <fragmenstein_outcome>  (356) 
too moved

>  <fragmenstein_mode>  (356) 
expansion

>  <fragmenstein_error>  (356) 


$$$$
C48752-P123
     RDKit          3D

 30 31  0  0  0  0  0  0  0  0999 V2000
   -8.5665  -15.7364   26.5868 C   0  0  0  0  0  0  0  0  0  0  0  0
   -9.2954  -16.8449   26.0477 N   0  0  0  0  0  0  0  0  0  0  0  0
   -9.8845  -15.6597   25.0999 C   0  0  0  0  0  0  0  0  0  0  0  0
   -9.1540  -14.3712   24.6194 C   0  0  0  0  0  0  0  0  0  0  0  0
   -9.3282  -13.0859   25.1097 C   0  0  0  0  0  0  0  0  0  0  0  0
   -8.3082  -12.3430   24.5878 N   0  0  0  0  0  0  0  0  0  0  0  0
   -7.6163  -13.1494   23.7354 C   0  0  0  0  0  0  0  0  0  0  0  0
   -8.0750  -14.3839   23.7564 N   0  0  0  0  0  0  0  0  0  0  0  0
   -9.9071  -17.6715   27.1663 C   0  0  0  0  0  0  0  0  0  0  0  0
  -11.0404  -17.4100   27.5664 O   0  0  0  0  0  0  0  0  0  0  0  0
   -9.1482  -19.3886   28.2065 C   0  0  0  0  0  0  0  0  0  0  0  0
   -9.9806  -21.2069   28.0499 N   0  0  0  0  0  0  0  0  0  0  0  0
  -11.3508  -21.6367   28.5643 C   0  0  0  0  0  0  0  0  0  0  0  0
  -11.4904  -22.9858   28.3920 C   0  0  0  0  0  0  0  0  0  0  0  0
  -12.6540  -23.7857   28.5013 C   0  0  0  0  0  0  0  0  0  0  0  0
  -13.5922  -24.4668   28.4796 N   0  0  0  0  0  0  0  0  0  0  0  0
  -10.2174  -23.4608   28.1474 C   0  0  0  0  0  0  0  0  0  0  0  0
   -9.2655  -22.5130   28.1709 N   0  0  0  0  0  0  0  0  0  0  0  0
   -7.8302  -15.3997   25.8783 H   0  0  0  0  0  0  0  0  0  0  0  0
   -8.1243  -16.1367   27.5030 H   0  0  0  0  0  0  0  0  0  0  0  0
   -9.1532  -14.8879   26.9675 H   0  0  0  0  0  0  0  0  0  0  0  0
  -10.1655  -16.2115   24.1924 H   0  0  0  0  0  0  0  0  0  0  0  0
  -10.8414  -15.3720   25.5645 H   0  0  0  0  0  0  0  0  0  0  0  0
  -10.0182  -12.6722   25.8327 H   0  0  0  0  0  0  0  0  0  0  0  0
   -8.1054  -11.3760   24.8012 H   0  0  0  0  0  0  0  0  0  0  0  0
   -6.7809  -12.7846   23.1524 H   0  0  0  0  0  0  0  0  0  0  0  0
   -8.0951  -19.6477   28.1309 H   0  0  0  0  0  0  0  0  0  0  0  0
   -9.9133  -20.1848   29.0941 H   0  0  0  0  0  0  0  0  0  0  0  0
  -12.0428  -20.8811   28.8952 H   0  0  0  0  0  0  0  0  0  0  0  0
   -9.9267  -24.4965   28.0413 H   0  0  0  0  0  0  0  0  0  0  0  0
  1  2  1  0
  2  3  1  0
  3  4  1  0
  4  5  2  0
  5  6  1  0
  6  7  1  0
  7  8  2  0
  2  9  1  0
  9 10  2  0
  9 11  1  0
 11 12  1  0
 12 13  1  0
 13 14  2  0
 14 15  1  0
 15 16  3  0
 14 17  1  0
 17 18  2  0
  8  4  1  0
 18 12  1  0
  1 19  1  0
  1 20  1  0
  1 21  1  0
  3 22  1  0
  3 23  1  0
  5 24  1  0
  6 25  1  0
  7 26  1  0
 11 27  1  0
 11 28  1  0
 13 29  1  0
 17 30  1  0
M  END
>  <Energy>  (357) 
435.72637832801144

>  <compound_id>  (357) 
48752

>  <target_id>  (357) 
1

>  <reference_id>  (357) 
123

>  <inspiration_ids>  (357) 
[123, 116]

>  <energy_score>  (357) 
383.1010805214999

>  <distance_score>  (357) 
6.945743360601585

>  <path>  (357) 
/opt/xchem-fragalysis-2/maxwin/BulkDock/SCRATCH/511021/C48752-P123/C48752-P123.minimised.mol

>  <scratch_subdir>  (357) 
/opt/xchem-fragalysis-2/maxwin/BulkDock/SCRATCH/511021/C48752-P123

>  <fragmenstein_runtime>  (357) 
17.201261043548584

>  <fragmenstein_outcome>  (357) 
too moved

>  <fragmenstein_mode>  (357) 
expansion

>  <fragmenstein_error>  (357) 


$$$$
C48752-P116
     RDKit          3D

 30 31  0  0  0  0  0  0  0  0999 V2000
   -4.2181  -17.7126   34.5122 C   0  0  0  0  0  0  0  0  0  0  0  0
   -3.8163  -19.1049   34.7481 N   0  0  0  0  0  0  0  0  0  0  0  0
   -2.5354  -18.6266   34.0466 C   0  0  0  0  0  0  0  0  0  0  0  0
   -1.7210  -17.3559   34.2138 C   0  0  0  0  0  0  0  0  0  0  0  0
   -0.7387  -17.0147   35.1176 C   0  0  0  0  0  0  0  0  0  0  0  0
   -0.2887  -15.7797   34.7268 N   0  0  0  0  0  0  0  0  0  0  0  0
   -0.9837  -15.4245   33.6093 C   0  0  0  0  0  0  0  0  0  0  0  0
   -1.8537  -16.3463   33.2823 N   0  0  0  0  0  0  0  0  0  0  0  0
   -4.8445  -19.9906   34.3052 C   0  0  0  0  0  0  0  0  0  0  0  0
   -5.0161  -20.5167   33.2365 O   0  0  0  0  0  0  0  0  0  0  0  0
   -5.8070  -20.3679   35.4241 C   0  0  0  0  0  0  0  0  0  0  0  0
   -6.3339  -21.6851   35.0962 N   0  0  0  0  0  0  0  0  0  0  0  0
   -7.5750  -22.0026   34.6366 C   0  0  0  0  0  0  0  0  0  0  0  0
   -7.4431  -23.2453   33.9968 C   0  0  0  0  0  0  0  0  0  0  0  0
   -8.5405  -24.1162   33.1118 C   0  0  0  0  0  0  0  0  0  0  0  0
   -9.4493  -24.5924   32.5511 N   0  0  0  0  0  0  0  0  0  0  0  0
   -6.0752  -23.3866   33.9120 C   0  0  0  0  0  0  0  0  0  0  0  0
   -5.4800  -22.6693   34.8428 N   0  0  0  0  0  0  0  0  0  0  0  0
   -4.2565  -17.3657   33.4717 H   0  0  0  0  0  0  0  0  0  0  0  0
   -5.2727  -17.6415   34.8211 H   0  0  0  0  0  0  0  0  0  0  0  0
   -3.7136  -17.0679   35.2224 H   0  0  0  0  0  0  0  0  0  0  0  0
   -2.6228  -18.8460   32.9778 H   0  0  0  0  0  0  0  0  0  0  0  0
   -1.8498  -19.4050   34.3999 H   0  0  0  0  0  0  0  0  0  0  0  0
   -0.3254  -17.5286   35.9728 H   0  0  0  0  0  0  0  0  0  0  0  0
    0.4281  -15.2299   35.1896 H   0  0  0  0  0  0  0  0  0  0  0  0
   -0.8229  -14.4942   33.0830 H   0  0  0  0  0  0  0  0  0  0  0  0
   -5.3210  -20.4250   36.3965 H   0  0  0  0  0  0  0  0  0  0  0  0
   -6.6375  -19.6574   35.4551 H   0  0  0  0  0  0  0  0  0  0  0  0
   -8.3481  -21.2693   34.7641 H   0  0  0  0  0  0  0  0  0  0  0  0
   -5.5066  -24.0277   33.2626 H   0  0  0  0  0  0  0  0  0  0  0  0
  1  2  1  0
  2  3  1  0
  3  4  1  0
  4  5  2  0
  5  6  1  0
  6  7  1  0
  7  8  2  0
  2  9  1  0
  9 10  2  0
  9 11  1  0
 11 12  1  0
 12 13  1  0
 13 14  2  0
 14 15  1  0
 15 16  3  0
 14 17  1  0
 17 18  2  0
  8  4  1  0
 18 12  1  0
  1 19  1  0
  1 20  1  0
  1 21  1  0
  3 22  1  0
  3 23  1  0
  5 24  1  0
  6 25  1  0
  7 26  1  0
 11 27  1  0
 11 28  1  0
 13 29  1  0
 17 30  1  0
M  END
>  <Energy>  (358) 
147.56726312950929

>  <compound_id>  (358) 
48752

>  <target_id>  (358) 
1

>  <reference_id>  (358) 
116

>  <inspiration_ids>  (358) 
[123, 116]

>  <energy_score>  (358) 
94.94196532300367

>  <distance_score>  (358) 
6.267396209469753

>  <path>  (358) 
/opt/xchem-fragalysis-2/maxwin/BulkDock/SCRATCH/511021/C48752-P116/C48752-P116.minimised.mol

>  <scratch_subdir>  (358) 
/opt/xchem-fragalysis-2/maxwin/BulkDock/SCRATCH/511021/C48752-P116

>  <fragmenstein_runtime>  (358) 
10.0779869556427

>  <fragmenstein_outcome>  (358) 
too moved

>  <fragmenstein_mode>  (358) 
expansion

>  <fragmenstein_error>  (358) 


$$$$
C62052-P97
     RDKit          3D

 32 32  0  0  0  0  0  0  0  0999 V2000
   13.9472   -4.3470   21.0600 C   0  0  0  0  0  0  0  0  0  0  0  0
   15.2244   -3.6678   20.6041 C   0  0  0  0  0  0  0  0  0  0  0  0
   16.0307   -3.3125   21.4127 O   0  0  0  0  0  0  0  0  0  0  0  0
   15.2566   -3.6325   19.1749 N   0  0  0  0  0  0  0  0  0  0  0  0
   16.2245   -3.0743   18.2640 C   0  0  0  0  0  0  0  0  0  0  0  0
   16.0087   -3.5293   16.8142 C   0  0  0  0  0  0  0  0  0  0  0  0
   14.8144   -2.9437   16.1766 N   0  0  0  0  0  0  0  0  0  0  0  0
   14.9944   -1.6068   15.5975 C   0  0  0  0  0  0  0  0  0  0  0  0
   14.1863   -1.3189   14.3372 C   0  0  0  0  0  0  0  0  0  0  0  0
   12.7702   -0.8383   14.6272 C   0  0  0  0  0  0  0  0  0  0  0  0
   12.1122   -1.5358   15.8081 C   0  0  0  0  0  0  0  0  0  0  0  0
   12.3293   -3.0342   15.7860 C   0  0  0  0  0  0  0  0  0  0  0  0
   13.5893   -3.5271   16.4815 C   0  0  0  0  0  0  0  0  0  0  0  0
   13.5141   -4.4884   17.2577 O   0  0  0  0  0  0  0  0  0  0  0  0
   13.7463   -4.0831   22.1025 H   0  0  0  0  0  0  0  0  0  0  0  0
   13.0925   -4.0251   20.4597 H   0  0  0  0  0  0  0  0  0  0  0  0
   14.0650   -5.4309   20.9794 H   0  0  0  0  0  0  0  0  0  0  0  0
   14.4225   -4.1002   18.8108 H   0  0  0  0  0  0  0  0  0  0  0  0
   16.1708   -1.9845   18.3534 H   0  0  0  0  0  0  0  0  0  0  0  0
   17.2137   -3.3866   18.6147 H   0  0  0  0  0  0  0  0  0  0  0  0
   16.8844   -3.2739   16.2072 H   0  0  0  0  0  0  0  0  0  0  0  0
   15.9166   -4.6225   16.7829 H   0  0  0  0  0  0  0  0  0  0  0  0
   14.8016   -0.8657   16.3815 H   0  0  0  0  0  0  0  0  0  0  0  0
   16.0515   -1.5095   15.3228 H   0  0  0  0  0  0  0  0  0  0  0  0
   14.1637   -2.1983   13.6860 H   0  0  0  0  0  0  0  0  0  0  0  0
   14.6900   -0.5319   13.7618 H   0  0  0  0  0  0  0  0  0  0  0  0
   12.7825    0.2407   14.8255 H   0  0  0  0  0  0  0  0  0  0  0  0
   12.1610   -0.9756   13.7257 H   0  0  0  0  0  0  0  0  0  0  0  0
   11.0382   -1.3191   15.7684 H   0  0  0  0  0  0  0  0  0  0  0  0
   12.4890   -1.1094   16.7424 H   0  0  0  0  0  0  0  0  0  0  0  0
   11.4915   -3.5126   16.3024 H   0  0  0  0  0  0  0  0  0  0  0  0
   12.2981   -3.4111   14.7619 H   0  0  0  0  0  0  0  0  0  0  0  0
  1  2  1  0
  2  3  2  0
  2  4  1  0
  4  5  1  0
  5  6  1  0
  6  7  1  0
  7  8  1  0
  8  9  1  0
  9 10  1  0
 10 11  1  0
 11 12  1  0
 12 13  1  0
 13 14  2  0
 13  7  1  0
  1 15  1  0
  1 16  1  0
  1 17  1  0
  4 18  1  0
  5 19  1  0
  5 20  1  0
  6 21  1  0
  6 22  1  0
  8 23  1  0
  8 24  1  0
  9 25  1  0
  9 26  1  0
 10 27  1  0
 10 28  1  0
 11 29  1  0
 11 30  1  0
 12 31  1  0
 12 32  1  0
M  END
>  <Energy>  (359) 
-13.451278025196842

>  <compound_id>  (359) 
62052

>  <target_id>  (359) 
1

>  <reference_id>  (359) 
97

>  <inspiration_ids>  (359) 
[97, 98]

>  <energy_score>  (359) 
-132.72370426238646

>  <distance_score>  (359) 
3.91876608962366

>  <path>  (359) 
/opt/xchem-fragalysis-2/maxwin/BulkDock/SCRATCH/511021/C62052-P97/C62052-P97.minimised.mol

>  <scratch_subdir>  (359) 
/opt/xchem-fragalysis-2/maxwin/BulkDock/SCRATCH/511021/C62052-P97

>  <fragmenstein_runtime>  (359) 
2.353487968444824

>  <fragmenstein_outcome>  (359) 
too moved

>  <fragmenstein_mode>  (359) 
expansion

>  <fragmenstein_error>  (359) 


$$$$
C62052-P98
     RDKit          3D

 32 32  0  0  0  0  0  0  0  0999 V2000
   17.8835   -2.5724   12.3522 C   0  0  0  0  0  0  0  0  0  0  0  0
   18.1232   -2.6632   13.8457 C   0  0  0  0  0  0  0  0  0  0  0  0
   18.8305   -1.8642   14.3847 O   0  0  0  0  0  0  0  0  0  0  0  0
   17.3802   -3.7629   14.3786 N   0  0  0  0  0  0  0  0  0  0  0  0
   17.3246   -4.3107   15.7138 C   0  0  0  0  0  0  0  0  0  0  0  0
   16.7483   -3.3322   16.7452 C   0  0  0  0  0  0  0  0  0  0  0  0
   15.3655   -2.9239   16.4478 N   0  0  0  0  0  0  0  0  0  0  0  0
   15.1877   -1.6002   15.8568 C   0  0  0  0  0  0  0  0  0  0  0  0
   14.4288   -1.6031   14.5352 C   0  0  0  0  0  0  0  0  0  0  0  0
   12.9279   -1.8455   14.6379 C   0  0  0  0  0  0  0  0  0  0  0  0
   12.4230   -2.1374   16.0380 C   0  0  0  0  0  0  0  0  0  0  0  0
   12.8985   -3.4533   16.6235 C   0  0  0  0  0  0  0  0  0  0  0  0
   14.3629   -3.7981   16.8108 C   0  0  0  0  0  0  0  0  0  0  0  0
   14.6283   -4.9017   17.3094 O   0  0  0  0  0  0  0  0  0  0  0  0
   18.2403   -3.4822   11.8615 H   0  0  0  0  0  0  0  0  0  0  0  0
   16.8190   -2.4270   12.1484 H   0  0  0  0  0  0  0  0  0  0  0  0
   18.4340   -1.7196   11.9439 H   0  0  0  0  0  0  0  0  0  0  0  0
   16.8205   -4.1783   13.6337 H   0  0  0  0  0  0  0  0  0  0  0  0
   18.3486   -4.5718   16.0001 H   0  0  0  0  0  0  0  0  0  0  0  0
   16.7341   -5.2304   15.6626 H   0  0  0  0  0  0  0  0  0  0  0  0
   16.7641   -3.8151   17.7301 H   0  0  0  0  0  0  0  0  0  0  0  0
   17.3810   -2.4417   16.8333 H   0  0  0  0  0  0  0  0  0  0  0  0
   14.7271   -0.9463   16.6036 H   0  0  0  0  0  0  0  0  0  0  0  0
   16.1765   -1.1699   15.6600 H   0  0  0  0  0  0  0  0  0  0  0  0
   14.8724   -2.3331   13.8507 H   0  0  0  0  0  0  0  0  0  0  0  0
   14.5785   -0.6274   14.0546 H   0  0  0  0  0  0  0  0  0  0  0  0
   12.4085   -0.9520   14.2673 H   0  0  0  0  0  0  0  0  0  0  0  0
   12.6322   -2.6514   13.9564 H   0  0  0  0  0  0  0  0  0  0  0  0
   11.3279   -2.1733   15.9833 H   0  0  0  0  0  0  0  0  0  0  0  0
   12.6526   -1.3061   16.7116 H   0  0  0  0  0  0  0  0  0  0  0  0
   12.4762   -3.5357   17.6281 H   0  0  0  0  0  0  0  0  0  0  0  0
   12.4576   -4.2659   16.0410 H   0  0  0  0  0  0  0  0  0  0  0  0
  1  2  1  0
  2  3  2  0
  2  4  1  0
  4  5  1  0
  5  6  1  0
  6  7  1  0
  7  8  1  0
  8  9  1  0
  9 10  1  0
 10 11  1  0
 11 12  1  0
 12 13  1  0
 13 14  2  0
 13  7  1  0
  1 15  1  0
  1 16  1  0
  1 17  1  0
  4 18  1  0
  5 19  1  0
  5 20  1  0
  6 21  1  0
  6 22  1  0
  8 23  1  0
  8 24  1  0
  9 25  1  0
  9 26  1  0
 10 27  1  0
 10 28  1  0
 11 29  1  0
 11 30  1  0
 12 31  1  0
 12 32  1  0
M  END
>  <Energy>  (360) 
-7.8920429813329527

>  <compound_id>  (360) 
62052

>  <target_id>  (360) 
1

>  <reference_id>  (360) 
98

>  <inspiration_ids>  (360) 
[97, 98]

>  <energy_score>  (360) 
-127.16446921852261

>  <distance_score>  (360) 
2.3016060809891985

>  <path>  (360) 
/opt/xchem-fragalysis-2/maxwin/BulkDock/SCRATCH/511021/C62052-P98/C62052-P98.minimised.mol

>  <scratch_subdir>  (360) 
/opt/xchem-fragalysis-2/maxwin/BulkDock/SCRATCH/511021/C62052-P98

>  <fragmenstein_runtime>  (360) 
2.4270877838134766

>  <fragmenstein_outcome>  (360) 
too moved

>  <fragmenstein_mode>  (360) 
expansion

>  <fragmenstein_error>  (360) 


$$$$
C62053-P97
     RDKit          3D

 24 24  0  0  0  0  0  0  0  0999 V2000
   14.9406    1.6790   15.3038 C   0  0  0  0  0  0  0  0  0  0  0  0
   15.8553    1.1152   14.2410 C   0  0  0  0  0  0  0  0  0  0  0  0
   15.8027   -0.3140   14.2849 N   0  0  0  0  0  0  0  0  0  0  0  0
   16.5282   -1.3206   15.2169 C   0  0  0  0  0  0  0  0  0  0  0  0
   17.3376   -1.1419   16.0394 O   0  0  0  0  0  0  0  0  0  0  0  0
   15.9287   -2.6949   14.9158 C   0  0  0  0  0  0  0  0  0  0  0  0
   14.6288   -2.8347   15.5595 N   0  0  0  0  0  0  0  0  0  0  0  0
   14.5189   -3.3045   16.9219 C   0  0  0  0  0  0  0  0  0  0  0  0
   13.1096   -3.8292   17.0934 C   0  0  0  0  0  0  0  0  0  0  0  0
   12.1274   -2.7423   16.0288 S   0  0  0  0  0  0  0  0  0  0  0  0
   13.4596   -2.3956   14.9756 C   0  0  0  0  0  0  0  0  0  0  0  0
   13.3282   -1.8909   13.8737 O   0  0  0  0  0  0  0  0  0  0  0  0
   15.2425    1.3495   16.3039 H   0  0  0  0  0  0  0  0  0  0  0  0
   14.9618    2.7730   15.2850 H   0  0  0  0  0  0  0  0  0  0  0  0
   13.9061    1.3544   15.1467 H   0  0  0  0  0  0  0  0  0  0  0  0
   16.8871    1.4265   14.4282 H   0  0  0  0  0  0  0  0  0  0  0  0
   15.5513    1.4403   13.2424 H   0  0  0  0  0  0  0  0  0  0  0  0
   15.0908   -0.8047   13.7404 H   0  0  0  0  0  0  0  0  0  0  0  0
   16.6036   -3.4799   15.2714 H   0  0  0  0  0  0  0  0  0  0  0  0
   15.8242   -2.8097   13.8316 H   0  0  0  0  0  0  0  0  0  0  0  0
   14.7224   -2.4606   17.5915 H   0  0  0  0  0  0  0  0  0  0  0  0
   15.2541   -4.0926   17.1137 H   0  0  0  0  0  0  0  0  0  0  0  0
   12.8050   -3.8104   18.1391 H   0  0  0  0  0  0  0  0  0  0  0  0
   13.0215   -4.8513   16.7172 H   0  0  0  0  0  0  0  0  0  0  0  0
  1  2  1  0
  2  3  1  0
  3  4  1  0
  4  5  2  0
  4  6  1  0
  6  7  1  0
  7  8  1  0
  8  9  1  0
  9 10  1  0
 10 11  1  0
 11 12  2  0
 11  7  1  0
  1 13  1  0
  1 14  1  0
  1 15  1  0
  2 16  1  0
  2 17  1  0
  3 18  1  0
  6 19  1  0
  6 20  1  0
  8 21  1  0
  8 22  1  0
  9 23  1  0
  9 24  1  0
M  END
>  <Energy>  (361) 
-15.192337313882767

>  <compound_id>  (361) 
62053

>  <target_id>  (361) 
1

>  <reference_id>  (361) 
97

>  <inspiration_ids>  (361) 
[97, 98]

>  <energy_score>  (361) 
-9.636233853128402

>  <distance_score>  (361) 
1.8503118606034603

>  <path>  (361) 
/opt/xchem-fragalysis-2/maxwin/BulkDock/SCRATCH/511021/C62053-P97/C62053-P97.minimised.mol

>  <scratch_subdir>  (361) 
/opt/xchem-fragalysis-2/maxwin/BulkDock/SCRATCH/511021/C62053-P97

>  <fragmenstein_runtime>  (361) 
1.1144850254058838

>  <fragmenstein_outcome>  (361) 
too moved

>  <fragmenstein_mode>  (361) 
expansion

>  <fragmenstein_error>  (361) 


$$$$
C62053-P98
     RDKit          3D

 24 24  0  0  0  0  0  0  0  0999 V2000
   14.9596    1.6863   15.2853 C   0  0  0  0  0  0  0  0  0  0  0  0
   15.6864    1.0817   14.1062 C   0  0  0  0  0  0  0  0  0  0  0  0
   15.6589   -0.3447   14.2155 N   0  0  0  0  0  0  0  0  0  0  0  0
   16.5267   -1.3060   15.0688 C   0  0  0  0  0  0  0  0  0  0  0  0
   17.4467   -1.0879   15.7539 O   0  0  0  0  0  0  0  0  0  0  0  0
   15.9312   -2.7054   14.8935 C   0  0  0  0  0  0  0  0  0  0  0  0
   14.7060   -2.8486   15.6767 N   0  0  0  0  0  0  0  0  0  0  0  0
   14.6613   -3.8335   16.7365 C   0  0  0  0  0  0  0  0  0  0  0  0
   13.3247   -3.7204   17.4289 C   0  0  0  0  0  0  0  0  0  0  0  0
   12.2053   -3.1452   16.1352 S   0  0  0  0  0  0  0  0  0  0  0  0
   13.4772   -2.5091   15.1417 C   0  0  0  0  0  0  0  0  0  0  0  0
   13.2662   -1.9179   14.0957 O   0  0  0  0  0  0  0  0  0  0  0  0
   15.4316    1.4018   16.2319 H   0  0  0  0  0  0  0  0  0  0  0  0
   14.9642    2.7785   15.2175 H   0  0  0  0  0  0  0  0  0  0  0  0
   13.9175    1.3502   15.3207 H   0  0  0  0  0  0  0  0  0  0  0  0
   16.7315    1.4048   14.1024 H   0  0  0  0  0  0  0  0  0  0  0  0
   15.2140    1.3636   13.1614 H   0  0  0  0  0  0  0  0  0  0  0  0
   14.8799   -0.8628   13.8031 H   0  0  0  0  0  0  0  0  0  0  0  0
   16.6701   -3.4443   15.2225 H   0  0  0  0  0  0  0  0  0  0  0  0
   15.7331   -2.8778   13.8308 H   0  0  0  0  0  0  0  0  0  0  0  0
   15.4886   -3.6640   17.4335 H   0  0  0  0  0  0  0  0  0  0  0  0
   14.7865   -4.8251   16.2888 H   0  0  0  0  0  0  0  0  0  0  0  0
   13.3849   -2.9696   18.2171 H   0  0  0  0  0  0  0  0  0  0  0  0
   13.0076   -4.6659   17.8710 H   0  0  0  0  0  0  0  0  0  0  0  0
  1  2  1  0
  2  3  1  0
  3  4  1  0
  4  5  2  0
  4  6  1  0
  6  7  1  0
  7  8  1  0
  8  9  1  0
  9 10  1  0
 10 11  1  0
 11 12  2  0
 11  7  1  0
  1 13  1  0
  1 14  1  0
  1 15  1  0
  2 16  1  0
  2 17  1  0
  3 18  1  0
  6 19  1  0
  6 20  1  0
  8 21  1  0
  8 22  1  0
  9 23  1  0
  9 24  1  0
M  END
>  <Energy>  (362) 
-13.948827473933765

>  <compound_id>  (362) 
62053

>  <target_id>  (362) 
1

>  <reference_id>  (362) 
98

>  <inspiration_ids>  (362) 
[97, 98]

>  <energy_score>  (362) 
-8.392724013179532

>  <distance_score>  (362) 
1.8311247207704187

>  <path>  (362) 
/opt/xchem-fragalysis-2/maxwin/BulkDock/SCRATCH/511021/C62053-P98/C62053-P98.minimised.mol

>  <scratch_subdir>  (362) 
/opt/xchem-fragalysis-2/maxwin/BulkDock/SCRATCH/511021/C62053-P98

>  <fragmenstein_runtime>  (362) 
1.3217556476593018

>  <fragmenstein_outcome>  (362) 
too moved

>  <fragmenstein_mode>  (362) 
expansion

>  <fragmenstein_error>  (362) 


$$$$
C62054-P97
     RDKit          3D

 29 29  0  0  0  0  0  0  0  0999 V2000
   17.8359   -4.6489   16.5053 C   0  0  0  0  0  0  0  0  0  0  0  0
   16.7585   -5.0002   17.5050 C   0  0  0  0  0  0  0  0  0  0  0  0
   15.4817   -4.5416   17.0347 N   0  0  0  0  0  0  0  0  0  0  0  0
   14.4370   -3.6058   17.7039 C   0  0  0  0  0  0  0  0  0  0  0  0
   14.4903   -3.0057   18.7041 O   0  0  0  0  0  0  0  0  0  0  0  0
   13.2338   -3.5283   16.7405 C   0  0  0  0  0  0  0  0  0  0  0  0
   13.1049   -2.2044   16.1066 N   0  0  0  0  0  0  0  0  0  0  0  0
   11.9223   -2.1617   15.2384 C   0  0  0  0  0  0  0  0  0  0  0  0
   11.8511   -0.8683   14.4236 C   0  0  0  0  0  0  0  0  0  0  0  0
   12.7476    0.2318   14.9687 C   0  0  0  0  0  0  0  0  0  0  0  0
   14.1596   -0.2864   15.0312 C   0  0  0  0  0  0  0  0  0  0  0  0
   15.1256    0.4393   14.7954 O   0  0  0  0  0  0  0  0  0  0  0  0
   14.3159   -1.7525   15.3955 C   0  0  0  0  0  0  0  0  0  0  0  0
   18.8121   -4.9977   16.8554 H   0  0  0  0  0  0  0  0  0  0  0  0
   17.6359   -5.1105   15.5322 H   0  0  0  0  0  0  0  0  0  0  0  0
   17.8929   -3.5657   16.3528 H   0  0  0  0  0  0  0  0  0  0  0  0
   16.9600   -4.5352   18.4744 H   0  0  0  0  0  0  0  0  0  0  0  0
   16.6954   -6.0833   17.6423 H   0  0  0  0  0  0  0  0  0  0  0  0
   15.0768   -4.9655   16.2088 H   0  0  0  0  0  0  0  0  0  0  0  0
   12.3513   -3.7411   17.3474 H   0  0  0  0  0  0  0  0  0  0  0  0
   13.2740   -4.3197   15.9960 H   0  0  0  0  0  0  0  0  0  0  0  0
   11.8958   -3.0135   14.5471 H   0  0  0  0  0  0  0  0  0  0  0  0
   11.0224   -2.2313   15.8561 H   0  0  0  0  0  0  0  0  0  0  0  0
   12.1552   -1.0886   13.3937 H   0  0  0  0  0  0  0  0  0  0  0  0
   10.8190   -0.5043   14.3915 H   0  0  0  0  0  0  0  0  0  0  0  0
   12.4382    0.5437   15.9711 H   0  0  0  0  0  0  0  0  0  0  0  0
   12.7144    1.1031   14.3067 H   0  0  0  0  0  0  0  0  0  0  0  0
   14.4984   -2.3257   14.4825 H   0  0  0  0  0  0  0  0  0  0  0  0
   15.1977   -1.8113   16.0411 H   0  0  0  0  0  0  0  0  0  0  0  0
  1  2  1  0
  2  3  1  0
  3  4  1  0
  4  5  2  0
  4  6  1  0
  6  7  1  0
  7  8  1  0
  8  9  1  0
  9 10  1  0
 10 11  1  0
 11 12  2  0
 11 13  1  0
 13  7  1  0
  1 14  1  0
  1 15  1  0
  1 16  1  0
  2 17  1  0
  2 18  1  0
  3 19  1  0
  6 20  1  0
  6 21  1  0
  8 22  1  0
  8 23  1  0
  9 24  1  0
  9 25  1  0
 10 26  1  0
 10 27  1  0
 13 28  1  0
 13 29  1  0
M  END
>  <Energy>  (363) 
72.990306670898818

>  <compound_id>  (363) 
62054

>  <target_id>  (363) 
1

>  <reference_id>  (363) 
97

>  <inspiration_ids>  (363) 
[97, 98]

>  <energy_score>  (363) 
-7.642302566665137

>  <distance_score>  (363) 
1.536725365073063

>  <path>  (363) 
/opt/xchem-fragalysis-2/maxwin/BulkDock/SCRATCH/511021/C62054-P97/C62054-P97.minimised.mol

>  <scratch_subdir>  (363) 
/opt/xchem-fragalysis-2/maxwin/BulkDock/SCRATCH/511021/C62054-P97

>  <fragmenstein_runtime>  (363) 
4.2289323806762695

>  <fragmenstein_outcome>  (363) 
too moved

>  <fragmenstein_mode>  (363) 
expansion

>  <fragmenstein_error>  (363) 


$$$$
C62054-P98
     RDKit          3D

 29 29  0  0  0  0  0  0  0  0999 V2000
   17.9619   -5.0325   17.0171 C   0  0  0  0  0  0  0  0  0  0  0  0
   17.0770   -5.0998   15.7948 C   0  0  0  0  0  0  0  0  0  0  0  0
   16.0373   -4.1187   15.8837 N   0  0  0  0  0  0  0  0  0  0  0  0
   14.7759   -4.0651   16.7890 C   0  0  0  0  0  0  0  0  0  0  0  0
   14.3525   -4.8495   17.5446 O   0  0  0  0  0  0  0  0  0  0  0  0
   14.1683   -2.6601   16.5767 C   0  0  0  0  0  0  0  0  0  0  0  0
   13.6479   -2.5345   15.2005 N   0  0  0  0  0  0  0  0  0  0  0  0
   12.1811   -2.5160   15.1378 C   0  0  0  0  0  0  0  0  0  0  0  0
   11.6016   -1.1098   14.9457 C   0  0  0  0  0  0  0  0  0  0  0  0
   12.4755   -0.0254   15.5632 C   0  0  0  0  0  0  0  0  0  0  0  0
   13.8696   -0.1090   14.9919 C   0  0  0  0  0  0  0  0  0  0  0  0
   14.6527    0.8386   15.0274 O   0  0  0  0  0  0  0  0  0  0  0  0
   14.2607   -1.4498   14.4151 C   0  0  0  0  0  0  0  0  0  0  0  0
   18.7663   -5.7713   16.9473 H   0  0  0  0  0  0  0  0  0  0  0  0
   17.3933   -5.2348   17.9311 H   0  0  0  0  0  0  0  0  0  0  0  0
   18.4160   -4.0413   17.1211 H   0  0  0  0  0  0  0  0  0  0  0  0
   16.6157   -6.0854   15.7199 H   0  0  0  0  0  0  0  0  0  0  0  0
   17.6519   -4.9046   14.8853 H   0  0  0  0  0  0  0  0  0  0  0  0
   16.0625   -3.3002   15.2903 H   0  0  0  0  0  0  0  0  0  0  0  0
   14.9559   -1.9273   16.7948 H   0  0  0  0  0  0  0  0  0  0  0  0
   13.3941   -2.5066   17.3362 H   0  0  0  0  0  0  0  0  0  0  0  0
   11.8610   -3.1292   14.2864 H   0  0  0  0  0  0  0  0  0  0  0  0
   11.7343   -2.9964   16.0161 H   0  0  0  0  0  0  0  0  0  0  0  0
   11.5126   -0.9078   13.8709 H   0  0  0  0  0  0  0  0  0  0  0  0
   10.5900   -1.0645   15.3640 H   0  0  0  0  0  0  0  0  0  0  0  0
   12.5495   -0.1567   16.6444 H   0  0  0  0  0  0  0  0  0  0  0  0
   12.0589    0.9629   15.3465 H   0  0  0  0  0  0  0  0  0  0  0  0
   13.9352   -1.4980   13.3697 H   0  0  0  0  0  0  0  0  0  0  0  0
   15.3520   -1.5324   14.4162 H   0  0  0  0  0  0  0  0  0  0  0  0
  1  2  1  0
  2  3  1  0
  3  4  1  0
  4  5  2  0
  4  6  1  0
  6  7  1  0
  7  8  1  0
  8  9  1  0
  9 10  1  0
 10 11  1  0
 11 12  2  0
 11 13  1  0
 13  7  1  0
  1 14  1  0
  1 15  1  0
  1 16  1  0
  2 17  1  0
  2 18  1  0
  3 19  1  0
  6 20  1  0
  6 21  1  0
  8 22  1  0
  8 23  1  0
  9 24  1  0
  9 25  1  0
 10 26  1  0
 10 27  1  0
 13 28  1  0
 13 29  1  0
M  END
>  <Energy>  (364) 
74.667877821574237

>  <compound_id>  (364) 
62054

>  <target_id>  (364) 
1

>  <reference_id>  (364) 
98

>  <inspiration_ids>  (364) 
[97, 98]

>  <energy_score>  (364) 
-5.964731415991054

>  <distance_score>  (364) 
1.539442883156162

>  <path>  (364) 
/opt/xchem-fragalysis-2/maxwin/BulkDock/SCRATCH/511021/C62054-P98/C62054-P98.minimised.mol

>  <scratch_subdir>  (364) 
/opt/xchem-fragalysis-2/maxwin/BulkDock/SCRATCH/511021/C62054-P98

>  <fragmenstein_runtime>  (364) 
4.797885417938232

>  <fragmenstein_outcome>  (364) 
too moved

>  <fragmenstein_mode>  (364) 
expansion

>  <fragmenstein_error>  (364) 


$$$$
C62055-P97
     RDKit          3D

 29 29  0  0  0  0  0  0  0  0999 V2000
   18.2368   -3.1058   13.4794 C   0  0  0  0  0  0  0  0  0  0  0  0
   17.8155   -2.3308   14.7076 C   0  0  0  0  0  0  0  0  0  0  0  0
   18.2536   -1.2852   14.9799 O   0  0  0  0  0  0  0  0  0  0  0  0
   16.7234   -3.1746   15.4096 N   0  0  0  0  0  0  0  0  0  0  0  0
   16.0111   -2.9462   16.6486 C   0  0  0  0  0  0  0  0  0  0  0  0
   14.5009   -3.1773   16.5387 C   0  0  0  0  0  0  0  0  0  0  0  0
   13.7026   -2.2215   15.7771 N   0  0  0  0  0  0  0  0  0  0  0  0
   14.2990   -1.3385   14.7751 C   0  0  0  0  0  0  0  0  0  0  0  0
   13.4840   -0.0717   14.5495 C   0  0  0  0  0  0  0  0  0  0  0  0
   11.9998   -0.2712   14.8115 C   0  0  0  0  0  0  0  0  0  0  0  0
   11.5885   -1.7227   14.6715 C   0  0  0  0  0  0  0  0  0  0  0  0
   12.3610   -2.5761   15.6344 C   0  0  0  0  0  0  0  0  0  0  0  0
   11.8463   -3.5266   16.2154 O   0  0  0  0  0  0  0  0  0  0  0  0
   17.4636   -3.0179   12.7123 H   0  0  0  0  0  0  0  0  0  0  0  0
   19.1712   -2.6883   13.0926 H   0  0  0  0  0  0  0  0  0  0  0  0
   18.4128   -4.1567   13.7247 H   0  0  0  0  0  0  0  0  0  0  0  0
   16.5267   -4.0050   14.8554 H   0  0  0  0  0  0  0  0  0  0  0  0
   16.2376   -1.9347   17.0006 H   0  0  0  0  0  0  0  0  0  0  0  0
   16.4310   -3.6526   17.3724 H   0  0  0  0  0  0  0  0  0  0  0  0
   14.0811   -3.1870   17.5532 H   0  0  0  0  0  0  0  0  0  0  0  0
   14.3261   -4.1783   16.1291 H   0  0  0  0  0  0  0  0  0  0  0  0
   14.3877   -1.9078   13.8426 H   0  0  0  0  0  0  0  0  0  0  0  0
   15.2963   -1.0257   15.0879 H   0  0  0  0  0  0  0  0  0  0  0  0
   13.6478    0.2797   13.5237 H   0  0  0  0  0  0  0  0  0  0  0  0
   13.8490    0.7287   15.2053 H   0  0  0  0  0  0  0  0  0  0  0  0
   11.4127    0.3594   14.1344 H   0  0  0  0  0  0  0  0  0  0  0  0
   11.7719    0.0694   15.8292 H   0  0  0  0  0  0  0  0  0  0  0  0
   10.5259   -1.8231   14.9145 H   0  0  0  0  0  0  0  0  0  0  0  0
   11.7652   -2.0988   13.6591 H   0  0  0  0  0  0  0  0  0  0  0  0
  1  2  1  0
  2  3  2  0
  2  4  1  0
  4  5  1  0
  5  6  1  0
  6  7  1  0
  7  8  1  0
  8  9  1  0
  9 10  1  0
 10 11  1  0
 11 12  1  0
 12 13  2  0
 12  7  1  0
  1 14  1  0
  1 15  1  0
  1 16  1  0
  4 17  1  0
  5 18  1  0
  5 19  1  0
  6 20  1  0
  6 21  1  0
  8 22  1  0
  8 23  1  0
  9 24  1  0
  9 25  1  0
 10 26  1  0
 10 27  1  0
 11 28  1  0
 11 29  1  0
M  END
>  <Energy>  (365) 
-1.9840840085780407

>  <compound_id>  (365) 
62055

>  <target_id>  (365) 
1

>  <reference_id>  (365) 
97

>  <inspiration_ids>  (365) 
[97, 98]

>  <energy_score>  (365) 
-0.7239467551598153

>  <distance_score>  (365) 
2.1464186832934455

>  <path>  (365) 
/opt/xchem-fragalysis-2/maxwin/BulkDock/SCRATCH/511021/C62055-P97/C62055-P97.minimised.mol

>  <scratch_subdir>  (365) 
/opt/xchem-fragalysis-2/maxwin/BulkDock/SCRATCH/511021/C62055-P97

>  <fragmenstein_runtime>  (365) 
2.6509554386138916

>  <fragmenstein_outcome>  (365) 
too moved

>  <fragmenstein_mode>  (365) 
expansion

>  <fragmenstein_error>  (365) 


$$$$
C62055-P98
     RDKit          3D

 29 29  0  0  0  0  0  0  0  0999 V2000
   18.3085   -3.3270   13.7633 C   0  0  0  0  0  0  0  0  0  0  0  0
   17.8913   -2.5806   15.0104 C   0  0  0  0  0  0  0  0  0  0  0  0
   18.4457   -1.6323   15.4005 O   0  0  0  0  0  0  0  0  0  0  0  0
   16.6361   -3.3040   15.5559 N   0  0  0  0  0  0  0  0  0  0  0  0
   15.8585   -3.0632   16.7529 C   0  0  0  0  0  0  0  0  0  0  0  0
   14.3523   -3.2404   16.5456 C   0  0  0  0  0  0  0  0  0  0  0  0
   13.6375   -2.2321   15.7677 N   0  0  0  0  0  0  0  0  0  0  0  0
   14.3164   -1.3751   14.7969 C   0  0  0  0  0  0  0  0  0  0  0  0
   13.5890   -0.0545   14.5762 C   0  0  0  0  0  0  0  0  0  0  0  0
   12.0894   -0.1647   14.8036 C   0  0  0  0  0  0  0  0  0  0  0  0
   11.5917   -1.5833   14.6102 C   0  0  0  0  0  0  0  0  0  0  0  0
   12.2842   -2.5066   15.5722 C   0  0  0  0  0  0  0  0  0  0  0  0
   11.6974   -3.4373   16.1148 O   0  0  0  0  0  0  0  0  0  0  0  0
   17.5794   -3.1461   12.9697 H   0  0  0  0  0  0  0  0  0  0  0  0
   19.2865   -2.9632   13.4345 H   0  0  0  0  0  0  0  0  0  0  0  0
   18.3946   -4.3979   13.9662 H   0  0  0  0  0  0  0  0  0  0  0  0
   16.4717   -4.1512   15.0182 H   0  0  0  0  0  0  0  0  0  0  0  0
   16.0993   -2.0642   17.1303 H   0  0  0  0  0  0  0  0  0  0  0  0
   16.2105   -3.7902   17.4925 H   0  0  0  0  0  0  0  0  0  0  0  0
   13.8719   -3.2651   17.5326 H   0  0  0  0  0  0  0  0  0  0  0  0
   14.1667   -4.2203   16.0926 H   0  0  0  0  0  0  0  0  0  0  0  0
   14.3896   -1.9334   13.8564 H   0  0  0  0  0  0  0  0  0  0  0  0
   15.3256   -1.1342   15.1348 H   0  0  0  0  0  0  0  0  0  0  0  0
   13.7974    0.3021   13.5604 H   0  0  0  0  0  0  0  0  0  0  0  0
   13.9890    0.7101   15.2538 H   0  0  0  0  0  0  0  0  0  0  0  0
   11.5582    0.5216   14.1345 H   0  0  0  0  0  0  0  0  0  0  0  0
   11.8614    0.1592   15.8274 H   0  0  0  0  0  0  0  0  0  0  0  0
   10.5184   -1.6209   14.8222 H   0  0  0  0  0  0  0  0  0  0  0  0
   11.7711   -1.9407   13.5913 H   0  0  0  0  0  0  0  0  0  0  0  0
  1  2  1  0
  2  3  2  0
  2  4  1  0
  4  5  1  0
  5  6  1  0
  6  7  1  0
  7  8  1  0
  8  9  1  0
  9 10  1  0
 10 11  1  0
 11 12  1  0
 12 13  2  0
 12  7  1  0
  1 14  1  0
  1 15  1  0
  1 16  1  0
  4 17  1  0
  5 18  1  0
  5 19  1  0
  6 20  1  0
  6 21  1  0
  8 22  1  0
  8 23  1  0
  9 24  1  0
  9 25  1  0
 10 26  1  0
 10 27  1  0
 11 28  1  0
 11 29  1  0
M  END
>  <Energy>  (366) 
-2.3494324142923766

>  <compound_id>  (366) 
62055

>  <target_id>  (366) 
1

>  <reference_id>  (366) 
98

>  <inspiration_ids>  (366) 
[97, 98]

>  <energy_score>  (366) 
-1.0892951608740118

>  <distance_score>  (366) 
2.0340226167314417

>  <path>  (366) 
/opt/xchem-fragalysis-2/maxwin/BulkDock/SCRATCH/511021/C62055-P98/C62055-P98.minimised.mol

>  <scratch_subdir>  (366) 
/opt/xchem-fragalysis-2/maxwin/BulkDock/SCRATCH/511021/C62055-P98

>  <fragmenstein_runtime>  (366) 
2.739598512649536

>  <fragmenstein_outcome>  (366) 
too moved

>  <fragmenstein_mode>  (366) 
expansion

>  <fragmenstein_error>  (366) 


$$$$
C62056-P97
     RDKit          3D

 23 23  0  0  0  0  0  0  0  0999 V2000
   15.6834    1.7128   14.9799 C   0  0  0  0  0  0  0  0  0  0  0  0
   16.9919    0.9514   15.0554 C   0  0  0  0  0  0  0  0  0  0  0  0
   16.7200   -0.4561   15.0358 N   0  0  0  0  0  0  0  0  0  0  0  0
   16.2380   -1.4049   16.1654 C   0  0  0  0  0  0  0  0  0  0  0  0
   16.0631   -1.2005   17.3020 O   0  0  0  0  0  0  0  0  0  0  0  0
   15.8908   -2.7510   15.5107 C   0  0  0  0  0  0  0  0  0  0  0  0
   14.5015   -3.0283   15.8622 N   0  0  0  0  0  0  0  0  0  0  0  0
   14.2369   -3.9843   16.8243 C   0  0  0  0  0  0  0  0  0  0  0  0
   15.0549   -4.6942   17.4007 O   0  0  0  0  0  0  0  0  0  0  0  0
   12.7745   -4.1272   17.0702 C   0  0  0  0  0  0  0  0  0  0  0  0
   11.9396   -3.0163   15.9406 S   0  0  0  0  0  0  0  0  0  0  0  0
   13.4141   -2.4640   15.2232 C   0  0  0  0  0  0  0  0  0  0  0  0
   13.3657   -1.4570   13.9012 S   0  0  0  0  0  0  0  0  0  0  0  0
   15.8692    2.7906   15.0192 H   0  0  0  0  0  0  0  0  0  0  0  0
   15.0203    1.4506   15.8113 H   0  0  0  0  0  0  0  0  0  0  0  0
   15.1545    1.4944   14.0465 H   0  0  0  0  0  0  0  0  0  0  0  0
   17.5080    1.1855   15.9910 H   0  0  0  0  0  0  0  0  0  0  0  0
   17.6412    1.1908   14.2091 H   0  0  0  0  0  0  0  0  0  0  0  0
   16.6817   -0.9412   14.1465 H   0  0  0  0  0  0  0  0  0  0  0  0
   16.5688   -3.5080   15.9174 H   0  0  0  0  0  0  0  0  0  0  0  0
   16.0000   -2.7465   14.4241 H   0  0  0  0  0  0  0  0  0  0  0  0
   12.4716   -5.1488   16.8524 H   0  0  0  0  0  0  0  0  0  0  0  0
   12.6037   -3.8676   18.1114 H   0  0  0  0  0  0  0  0  0  0  0  0
  1  2  1  0
  2  3  1  0
  3  4  1  0
  4  5  2  0
  4  6  1  0
  6  7  1  0
  7  8  1  0
  8  9  2  0
  8 10  1  0
 10 11  1  0
 11 12  1  0
 12 13  2  0
 12  7  1  0
  1 14  1  0
  1 15  1  0
  1 16  1  0
  2 17  1  0
  2 18  1  0
  3 19  1  0
  6 20  1  0
  6 21  1  0
 10 22  1  0
 10 23  1  0
M  END
>  <Energy>  (367) 
-22.197230639221662

>  <compound_id>  (367) 
62056

>  <target_id>  (367) 
1

>  <reference_id>  (367) 
97

>  <inspiration_ids>  (367) 
[97, 98]

>  <energy_score>  (367) 
-10.056776974794303

>  <distance_score>  (367) 
1.775343993386294

>  <path>  (367) 
/opt/xchem-fragalysis-2/maxwin/BulkDock/SCRATCH/511021/C62056-P97/C62056-P97.minimised.mol

>  <scratch_subdir>  (367) 
/opt/xchem-fragalysis-2/maxwin/BulkDock/SCRATCH/511021/C62056-P97

>  <fragmenstein_runtime>  (367) 
1.4273614883422852

>  <fragmenstein_outcome>  (367) 
too moved

>  <fragmenstein_mode>  (367) 
expansion

>  <fragmenstein_error>  (367) 


$$$$
C62056-P98
     RDKit          3D

 23 23  0  0  0  0  0  0  0  0999 V2000
   15.6191    1.6066   15.0839 C   0  0  0  0  0  0  0  0  0  0  0  0
   16.9123    0.8423   14.8839 C   0  0  0  0  0  0  0  0  0  0  0  0
   16.6319   -0.5634   14.8325 N   0  0  0  0  0  0  0  0  0  0  0  0
   16.4275   -1.5924   15.9761 C   0  0  0  0  0  0  0  0  0  0  0  0
   16.5323   -1.4688   17.1325 O   0  0  0  0  0  0  0  0  0  0  0  0
   15.9220   -2.8931   15.3346 C   0  0  0  0  0  0  0  0  0  0  0  0
   14.5296   -3.0371   15.7543 N   0  0  0  0  0  0  0  0  0  0  0  0
   14.2320   -3.9359   16.7646 C   0  0  0  0  0  0  0  0  0  0  0  0
   15.0052   -4.7209   17.3056 O   0  0  0  0  0  0  0  0  0  0  0  0
   12.7807   -3.9181   17.1007 C   0  0  0  0  0  0  0  0  0  0  0  0
   11.9866   -2.7840   15.9645 S   0  0  0  0  0  0  0  0  0  0  0  0
   13.4577   -2.4345   15.1223 C   0  0  0  0  0  0  0  0  0  0  0  0
   13.4119   -1.5456   13.7159 S   0  0  0  0  0  0  0  0  0  0  0  0
   14.9354    1.4508   14.2433 H   0  0  0  0  0  0  0  0  0  0  0  0
   15.8205    2.6795   15.1609 H   0  0  0  0  0  0  0  0  0  0  0  0
   15.1054    1.2888   15.9976 H   0  0  0  0  0  0  0  0  0  0  0  0
   17.4031    1.1308   13.9505 H   0  0  0  0  0  0  0  0  0  0  0  0
   17.5888    1.0241   15.7240 H   0  0  0  0  0  0  0  0  0  0  0  0
   16.3770   -0.9862   13.9464 H   0  0  0  0  0  0  0  0  0  0  0  0
   15.9981   -2.8897   14.2453 H   0  0  0  0  0  0  0  0  0  0  0  0
   16.5412   -3.7153   15.7081 H   0  0  0  0  0  0  0  0  0  0  0  0
   12.3707   -4.9072   16.9331 H   0  0  0  0  0  0  0  0  0  0  0  0
   12.6842   -3.6022   18.1374 H   0  0  0  0  0  0  0  0  0  0  0  0
  1  2  1  0
  2  3  1  0
  3  4  1  0
  4  5  2  0
  4  6  1  0
  6  7  1  0
  7  8  1  0
  8  9  2  0
  8 10  1  0
 10 11  1  0
 11 12  1  0
 12 13  2  0
 12  7  1  0
  1 14  1  0
  1 15  1  0
  1 16  1  0
  2 17  1  0
  2 18  1  0
  3 19  1  0
  6 20  1  0
  6 21  1  0
 10 22  1  0
 10 23  1  0
M  END
>  <Energy>  (368) 
-21.551032794380298

>  <compound_id>  (368) 
62056

>  <target_id>  (368) 
1

>  <reference_id>  (368) 
98

>  <inspiration_ids>  (368) 
[97, 98]

>  <energy_score>  (368) 
-9.410579129953305

>  <distance_score>  (368) 
1.6394107121090467

>  <path>  (368) 
/opt/xchem-fragalysis-2/maxwin/BulkDock/SCRATCH/511021/C62056-P98/C62056-P98.minimised.mol

>  <scratch_subdir>  (368) 
/opt/xchem-fragalysis-2/maxwin/BulkDock/SCRATCH/511021/C62056-P98

>  <fragmenstein_runtime>  (368) 
1.6869640350341797

>  <fragmenstein_outcome>  (368) 
too moved

>  <fragmenstein_mode>  (368) 
expansion

>  <fragmenstein_error>  (368) 


$$$$
C62057-P97
     RDKit          3D

 24 24  0  0  0  0  0  0  0  0999 V2000
   17.0647   -2.6788   13.8524 C   0  0  0  0  0  0  0  0  0  0  0  0
   16.3677   -2.0867   12.6408 C   0  0  0  0  0  0  0  0  0  0  0  0
   15.0949   -1.5199   13.0005 N   0  0  0  0  0  0  0  0  0  0  0  0
   14.7400   -0.1226   13.5562 C   0  0  0  0  0  0  0  0  0  0  0  0
   15.4130    0.8120   13.7364 O   0  0  0  0  0  0  0  0  0  0  0  0
   13.2678   -0.1421   13.9358 C   0  0  0  0  0  0  0  0  0  0  0  0
   12.9472   -0.7192   15.3182 C   0  0  0  0  0  0  0  0  0  0  0  0
   12.7332   -2.2609   15.4044 C   0  0  0  0  0  0  0  0  0  0  0  0
   14.0448   -2.3306   16.2058 C   0  0  0  0  0  0  0  0  0  0  0  0
   14.7747   -3.2321   16.5548 O   0  0  0  0  0  0  0  0  0  0  0  0
   14.0712   -0.8055   16.3952 C   0  0  0  0  0  0  0  0  0  0  0  0
   17.2552   -1.9086   14.6076 H   0  0  0  0  0  0  0  0  0  0  0  0
   16.4551   -3.4552   14.3225 H   0  0  0  0  0  0  0  0  0  0  0  0
   18.0234   -3.1199   13.5637 H   0  0  0  0  0  0  0  0  0  0  0  0
   16.1948   -2.8396   11.8683 H   0  0  0  0  0  0  0  0  0  0  0  0
   16.9826   -1.2854   12.2195 H   0  0  0  0  0  0  0  0  0  0  0  0
   14.2496   -2.0684   12.8994 H   0  0  0  0  0  0  0  0  0  0  0  0
   12.6812   -0.6464   13.1621 H   0  0  0  0  0  0  0  0  0  0  0  0
   12.9376    0.9053   13.9075 H   0  0  0  0  0  0  0  0  0  0  0  0
   12.0598   -0.1936   15.7014 H   0  0  0  0  0  0  0  0  0  0  0  0
   12.7325   -2.7898   14.4527 H   0  0  0  0  0  0  0  0  0  0  0  0
   11.8619   -2.5683   15.9899 H   0  0  0  0  0  0  0  0  0  0  0  0
   13.7619   -0.4996   17.3985 H   0  0  0  0  0  0  0  0  0  0  0  0
   15.0318   -0.3433   16.1636 H   0  0  0  0  0  0  0  0  0  0  0  0
  1  2  1  0
  2  3  1  0
  3  4  1  0
  4  5  2  0
  4  6  1  0
  6  7  1  0
  7  8  1  0
  8  9  1  0
  9 10  2  0
  9 11  1  0
 11  7  1  0
  1 12  1  0
  1 13  1  0
  1 14  1  0
  2 15  1  0
  2 16  1  0
  3 17  1  0
  6 18  1  0
  6 19  1  0
  7 20  1  0
  8 21  1  0
  8 22  1  0
 11 23  1  0
 11 24  1  0
M  END
>  <Energy>  (369) 
3.0331552557582033

>  <compound_id>  (369) 
62057

>  <target_id>  (369) 
1

>  <reference_id>  (369) 
97

>  <inspiration_ids>  (369) 
[97, 98]

>  <energy_score>  (369) 
3.8620843108449776

>  <distance_score>  (369) 
1.745300383786518

>  <path>  (369) 
/opt/xchem-fragalysis-2/maxwin/BulkDock/SCRATCH/511021/C62057-P97/C62057-P97.minimised.mol

>  <scratch_subdir>  (369) 
/opt/xchem-fragalysis-2/maxwin/BulkDock/SCRATCH/511021/C62057-P97

>  <fragmenstein_runtime>  (369) 
1.19854736328125

>  <fragmenstein_outcome>  (369) 
too moved

>  <fragmenstein_mode>  (369) 
expansion

>  <fragmenstein_error>  (369) 


$$$$
C62057-P98
     RDKit          3D

 24 24  0  0  0  0  0  0  0  0999 V2000
   17.0412   -2.6592   13.8380 C   0  0  0  0  0  0  0  0  0  0  0  0
   16.3573   -2.0979   12.6042 C   0  0  0  0  0  0  0  0  0  0  0  0
   15.0407   -1.6093   12.9180 N   0  0  0  0  0  0  0  0  0  0  0  0
   14.5732   -0.2113   13.3806 C   0  0  0  0  0  0  0  0  0  0  0  0
   15.1705    0.7819   13.5055 O   0  0  0  0  0  0  0  0  0  0  0  0
   13.1042   -0.3230   13.7565 C   0  0  0  0  0  0  0  0  0  0  0  0
   12.8254   -0.8044   15.1855 C   0  0  0  0  0  0  0  0  0  0  0  0
   12.6659   -2.3433   15.3784 C   0  0  0  0  0  0  0  0  0  0  0  0
   13.9963   -2.3173   16.1508 C   0  0  0  0  0  0  0  0  0  0  0  0
   14.7685   -3.1701   16.5297 O   0  0  0  0  0  0  0  0  0  0  0  0
   13.9627   -0.7828   16.2545 C   0  0  0  0  0  0  0  0  0  0  0  0
   17.1575   -1.8855   14.6045 H   0  0  0  0  0  0  0  0  0  0  0  0
   16.4609   -3.4740   14.2796 H   0  0  0  0  0  0  0  0  0  0  0  0
   18.0342   -3.0413   13.5833 H   0  0  0  0  0  0  0  0  0  0  0  0
   16.2584   -2.8533   11.8214 H   0  0  0  0  0  0  0  0  0  0  0  0
   16.9405   -1.2595   12.2108 H   0  0  0  0  0  0  0  0  0  0  0  0
   14.2411   -2.2268   12.8461 H   0  0  0  0  0  0  0  0  0  0  0  0
   12.5660   -0.9364   13.0254 H   0  0  0  0  0  0  0  0  0  0  0  0
   12.6886    0.6872   13.6393 H   0  0  0  0  0  0  0  0  0  0  0  0
   11.9253   -0.2831   15.5445 H   0  0  0  0  0  0  0  0  0  0  0  0
   12.6627   -2.9339   14.4639 H   0  0  0  0  0  0  0  0  0  0  0  0
   11.8187   -2.6393   16.0037 H   0  0  0  0  0  0  0  0  0  0  0  0
   13.6470   -0.4344   17.2425 H   0  0  0  0  0  0  0  0  0  0  0  0
   14.9011   -0.2950   15.9876 H   0  0  0  0  0  0  0  0  0  0  0  0
  1  2  1  0
  2  3  1  0
  3  4  1  0
  4  5  2  0
  4  6  1  0
  6  7  1  0
  7  8  1  0
  8  9  1  0
  9 10  2  0
  9 11  1  0
 11  7  1  0
  1 12  1  0
  1 13  1  0
  1 14  1  0
  2 15  1  0
  2 16  1  0
  3 17  1  0
  6 18  1  0
  6 19  1  0
  7 20  1  0
  8 21  1  0
  8 22  1  0
 11 23  1  0
 11 24  1  0
M  END
>  <Energy>  (370) 
3.2352396655591491

>  <compound_id>  (370) 
62057

>  <target_id>  (370) 
1

>  <reference_id>  (370) 
98

>  <inspiration_ids>  (370) 
[97, 98]

>  <energy_score>  (370) 
4.064168720646521

>  <distance_score>  (370) 
1.7671799725508162

>  <path>  (370) 
/opt/xchem-fragalysis-2/maxwin/BulkDock/SCRATCH/511021/C62057-P98/C62057-P98.minimised.mol

>  <scratch_subdir>  (370) 
/opt/xchem-fragalysis-2/maxwin/BulkDock/SCRATCH/511021/C62057-P98

>  <fragmenstein_runtime>  (370) 
1.5338749885559082

>  <fragmenstein_outcome>  (370) 
too moved

>  <fragmenstein_mode>  (370) 
expansion

>  <fragmenstein_error>  (370) 


$$$$
C62060-P97
     RDKit          3D

 29 29  0  0  0  0  0  0  0  0999 V2000
   13.8647   -4.3718   20.5630 C   0  0  0  0  0  0  0  0  0  0  0  0
   15.1623   -4.3838   19.7855 C   0  0  0  0  0  0  0  0  0  0  0  0
   16.2090   -4.3722   20.2990 O   0  0  0  0  0  0  0  0  0  0  0  0
   14.7804   -4.4817   18.2873 N   0  0  0  0  0  0  0  0  0  0  0  0
   15.6124   -4.4897   17.1058 C   0  0  0  0  0  0  0  0  0  0  0  0
   15.7585   -3.1152   16.4348 C   0  0  0  0  0  0  0  0  0  0  0  0
   14.6530   -2.7528   15.5228 N   0  0  0  0  0  0  0  0  0  0  0  0
   13.3070   -2.7421   16.1017 C   0  0  0  0  0  0  0  0  0  0  0  0
   12.3161   -1.9536   15.2458 C   0  0  0  0  0  0  0  0  0  0  0  0
   12.7365   -0.4917   15.1752 C   0  0  0  0  0  0  0  0  0  0  0  0
   14.2329   -0.3689   15.0120 C   0  0  0  0  0  0  0  0  0  0  0  0
   14.8083    0.7122   15.1373 O   0  0  0  0  0  0  0  0  0  0  0  0
   14.9678   -1.6289   14.6214 C   0  0  0  0  0  0  0  0  0  0  0  0
   13.4819   -5.3907   20.6527 H   0  0  0  0  0  0  0  0  0  0  0  0
   13.1245   -3.7401   20.0711 H   0  0  0  0  0  0  0  0  0  0  0  0
   14.0464   -3.9655   21.5621 H   0  0  0  0  0  0  0  0  0  0  0  0
   13.7727   -4.5477   18.1981 H   0  0  0  0  0  0  0  0  0  0  0  0
   15.2116   -5.2212   16.4020 H   0  0  0  0  0  0  0  0  0  0  0  0
   16.6028   -4.8328   17.4240 H   0  0  0  0  0  0  0  0  0  0  0  0
   16.6801   -3.1615   15.8409 H   0  0  0  0  0  0  0  0  0  0  0  0
   15.8955   -2.3310   17.1895 H   0  0  0  0  0  0  0  0  0  0  0  0
   12.9417   -3.7692   16.2038 H   0  0  0  0  0  0  0  0  0  0  0  0
   13.3308   -2.2958   17.1027 H   0  0  0  0  0  0  0  0  0  0  0  0
   12.2664   -2.3834   14.2370 H   0  0  0  0  0  0  0  0  0  0  0  0
   11.3075   -2.0273   15.6668 H   0  0  0  0  0  0  0  0  0  0  0  0
   12.2405    0.0058   14.3363 H   0  0  0  0  0  0  0  0  0  0  0  0
   12.4609    0.0188   16.1036 H   0  0  0  0  0  0  0  0  0  0  0  0
   16.0428   -1.4186   14.5858 H   0  0  0  0  0  0  0  0  0  0  0  0
   14.6663   -1.8863   13.5992 H   0  0  0  0  0  0  0  0  0  0  0  0
  1  2  1  0
  2  3  2  0
  2  4  1  0
  4  5  1  0
  5  6  1  0
  6  7  1  0
  7  8  1  0
  8  9  1  0
  9 10  1  0
 10 11  1  0
 11 12  2  0
 11 13  1  0
 13  7  1  0
  1 14  1  0
  1 15  1  0
  1 16  1  0
  4 17  1  0
  5 18  1  0
  5 19  1  0
  6 20  1  0
  6 21  1  0
  8 22  1  0
  8 23  1  0
  9 24  1  0
  9 25  1  0
 10 26  1  0
 10 27  1  0
 13 28  1  0
 13 29  1  0
M  END
>  <Energy>  (371) 
51.895052132989839

>  <compound_id>  (371) 
62060

>  <target_id>  (371) 
1

>  <reference_id>  (371) 
97

>  <inspiration_ids>  (371) 
[97, 98]

>  <energy_score>  (371) 
-14.527753952387656

>  <distance_score>  (371) 
2.561199218225827

>  <path>  (371) 
/opt/xchem-fragalysis-2/maxwin/BulkDock/SCRATCH/511021/C62060-P97/C62060-P97.minimised.mol

>  <scratch_subdir>  (371) 
/opt/xchem-fragalysis-2/maxwin/BulkDock/SCRATCH/511021/C62060-P97

>  <fragmenstein_runtime>  (371) 
4.299905061721802

>  <fragmenstein_outcome>  (371) 
too moved

>  <fragmenstein_mode>  (371) 
expansion

>  <fragmenstein_error>  (371) 


$$$$
C62060-P98
     RDKit          3D

 29 29  0  0  0  0  0  0  0  0999 V2000
   14.0575   -4.2920   20.3193 C   0  0  0  0  0  0  0  0  0  0  0  0
   14.6617   -4.5924   18.9660 C   0  0  0  0  0  0  0  0  0  0  0  0
   14.3747   -5.5271   18.3338 O   0  0  0  0  0  0  0  0  0  0  0  0
   15.6485   -3.4455   18.6636 N   0  0  0  0  0  0  0  0  0  0  0  0
   16.5587   -3.2598   17.5609 C   0  0  0  0  0  0  0  0  0  0  0  0
   15.8913   -3.4299   16.1837 C   0  0  0  0  0  0  0  0  0  0  0  0
   14.8568   -2.3954   15.9586 N   0  0  0  0  0  0  0  0  0  0  0  0
   13.4731   -2.8686   16.1456 C   0  0  0  0  0  0  0  0  0  0  0  0
   12.4461   -2.1064   15.2960 C   0  0  0  0  0  0  0  0  0  0  0  0
   12.7510   -0.6157   15.2673 C   0  0  0  0  0  0  0  0  0  0  0  0
   14.1769   -0.3847   14.8189 C   0  0  0  0  0  0  0  0  0  0  0  0
   14.5979    0.7413   14.5515 O   0  0  0  0  0  0  0  0  0  0  0  0
   15.0624   -1.6128   14.7360 C   0  0  0  0  0  0  0  0  0  0  0  0
   14.8042   -4.4590   21.0999 H   0  0  0  0  0  0  0  0  0  0  0  0
   13.2049   -4.9553   20.4923 H   0  0  0  0  0  0  0  0  0  0  0  0
   13.7025   -3.2600   20.3541 H   0  0  0  0  0  0  0  0  0  0  0  0
   15.7167   -2.8362   19.4704 H   0  0  0  0  0  0  0  0  0  0  0  0
   17.0052   -2.2648   17.6591 H   0  0  0  0  0  0  0  0  0  0  0  0
   17.3521   -4.0060   17.6723 H   0  0  0  0  0  0  0  0  0  0  0  0
   15.4825   -4.4409   16.0767 H   0  0  0  0  0  0  0  0  0  0  0  0
   16.6818   -3.3497   15.4265 H   0  0  0  0  0  0  0  0  0  0  0  0
   13.3655   -3.9363   15.9332 H   0  0  0  0  0  0  0  0  0  0  0  0
   13.2156   -2.7355   17.2019 H   0  0  0  0  0  0  0  0  0  0  0  0
   12.4552   -2.5003   14.2715 H   0  0  0  0  0  0  0  0  0  0  0  0
   11.4380   -2.2770   15.6896 H   0  0  0  0  0  0  0  0  0  0  0  0
   12.0745   -0.1082   14.5728 H   0  0  0  0  0  0  0  0  0  0  0  0
   12.6329   -0.1827   16.2657 H   0  0  0  0  0  0  0  0  0  0  0  0
   14.8404   -2.1746   13.8236 H   0  0  0  0  0  0  0  0  0  0  0  0
   16.0985   -1.2585   14.6823 H   0  0  0  0  0  0  0  0  0  0  0  0
  1  2  1  0
  2  3  2  0
  2  4  1  0
  4  5  1  0
  5  6  1  0
  6  7  1  0
  7  8  1  0
  8  9  1  0
  9 10  1  0
 10 11  1  0
 11 12  2  0
 11 13  1  0
 13  7  1  0
  1 14  1  0
  1 15  1  0
  1 16  1  0
  4 17  1  0
  5 18  1  0
  5 19  1  0
  6 20  1  0
  6 21  1  0
  8 22  1  0
  8 23  1  0
  9 24  1  0
  9 25  1  0
 10 26  1  0
 10 27  1  0
 13 28  1  0
 13 29  1  0
M  END
>  <Energy>  (372) 
50.172444272542194

>  <compound_id>  (372) 
62060

>  <target_id>  (372) 
1

>  <reference_id>  (372) 
98

>  <inspiration_ids>  (372) 
[97, 98]

>  <energy_score>  (372) 
-16.250361812835195

>  <distance_score>  (372) 
2.4269573815441716

>  <path>  (372) 
/opt/xchem-fragalysis-2/maxwin/BulkDock/SCRATCH/511021/C62060-P98/C62060-P98.minimised.mol

>  <scratch_subdir>  (372) 
/opt/xchem-fragalysis-2/maxwin/BulkDock/SCRATCH/511021/C62060-P98

>  <fragmenstein_runtime>  (372) 
3.9591236114501953

>  <fragmenstein_outcome>  (372) 
too moved

>  <fragmenstein_mode>  (372) 
expansion

>  <fragmenstein_error>  (372) 


$$$$
C62061-P97
     RDKit          3D

 27 27  0  0  0  0  0  0  0  0999 V2000
   18.5747   -0.4494   13.3936 C   0  0  0  0  0  0  0  0  0  0  0  0
   17.1996    0.1235   13.1296 C   0  0  0  0  0  0  0  0  0  0  0  0
   16.7494    0.2498   12.0614 O   0  0  0  0  0  0  0  0  0  0  0  0
   16.5899    0.4371   14.5197 N   0  0  0  0  0  0  0  0  0  0  0  0
   15.3404    1.0575   14.8734 C   0  0  0  0  0  0  0  0  0  0  0  0
   14.1432    0.1369   14.6379 C   0  0  0  0  0  0  0  0  0  0  0  0
   13.9641   -0.9508   15.7024 C   0  0  0  0  0  0  0  0  0  0  0  0
   12.7402   -1.8563   15.4717 C   0  0  0  0  0  0  0  0  0  0  0  0
   12.9681   -3.0545   16.3840 C   0  0  0  0  0  0  0  0  0  0  0  0
   14.4648   -3.1275   16.4317 C   0  0  0  0  0  0  0  0  0  0  0  0
   15.0834   -4.0417   16.9589 O   0  0  0  0  0  0  0  0  0  0  0  0
   15.1176   -1.9465   15.7725 C   0  0  0  0  0  0  0  0  0  0  0  0
   18.4924   -1.3514   14.0063 H   0  0  0  0  0  0  0  0  0  0  0  0
   19.1982    0.2940   13.8976 H   0  0  0  0  0  0  0  0  0  0  0  0
   19.0463   -0.7145   12.4428 H   0  0  0  0  0  0  0  0  0  0  0  0
   17.2886    0.2840   15.2386 H   0  0  0  0  0  0  0  0  0  0  0  0
   15.2397    1.9427   14.2368 H   0  0  0  0  0  0  0  0  0  0  0  0
   15.3987    1.3825   15.9165 H   0  0  0  0  0  0  0  0  0  0  0  0
   13.2361    0.7547   14.6371 H   0  0  0  0  0  0  0  0  0  0  0  0
   14.2090   -0.3201   13.6425 H   0  0  0  0  0  0  0  0  0  0  0  0
   13.8501   -0.4688   16.6841 H   0  0  0  0  0  0  0  0  0  0  0  0
   12.6977   -2.1837   14.4252 H   0  0  0  0  0  0  0  0  0  0  0  0
   11.8001   -1.3445   15.7001 H   0  0  0  0  0  0  0  0  0  0  0  0
   12.6082   -2.8712   17.3928 H   0  0  0  0  0  0  0  0  0  0  0  0
   12.5266   -3.9664   15.9841 H   0  0  0  0  0  0  0  0  0  0  0  0
   15.9414   -1.5766   16.3877 H   0  0  0  0  0  0  0  0  0  0  0  0
   15.4728   -2.2494   14.7830 H   0  0  0  0  0  0  0  0  0  0  0  0
  1  2  1  0
  2  3  2  0
  2  4  1  0
  4  5  1  0
  5  6  1  0
  6  7  1  0
  7  8  1  0
  8  9  1  0
  9 10  1  0
 10 11  2  0
 10 12  1  0
 12  7  1  0
  1 13  1  0
  1 14  1  0
  1 15  1  0
  4 16  1  0
  5 17  1  0
  5 18  1  0
  6 19  1  0
  6 20  1  0
  7 21  1  0
  8 22  1  0
  8 23  1  0
  9 24  1  0
  9 25  1  0
 12 26  1  0
 12 27  1  0
M  END
>  <Energy>  (373) 
1.2300758513266263

>  <compound_id>  (373) 
62061

>  <target_id>  (373) 
1

>  <reference_id>  (373) 
97

>  <inspiration_ids>  (373) 
[97, 98]

>  <energy_score>  (373) 
-9.210877530003266

>  <distance_score>  (373) 
2.238595553852218

>  <path>  (373) 
/opt/xchem-fragalysis-2/maxwin/BulkDock/SCRATCH/511021/C62061-P97/C62061-P97.minimised.mol

>  <scratch_subdir>  (373) 
/opt/xchem-fragalysis-2/maxwin/BulkDock/SCRATCH/511021/C62061-P97

>  <fragmenstein_runtime>  (373) 
1.1509811878204346

>  <fragmenstein_outcome>  (373) 
too moved

>  <fragmenstein_mode>  (373) 
expansion

>  <fragmenstein_error>  (373) 


$$$$
C62061-P98
     RDKit          3D

 27 27  0  0  0  0  0  0  0  0999 V2000
   14.3542    2.7318   10.8825 C   0  0  0  0  0  0  0  0  0  0  0  0
   13.5158    1.9514   11.8711 C   0  0  0  0  0  0  0  0  0  0  0  0
   12.4446    2.2742   12.1994 O   0  0  0  0  0  0  0  0  0  0  0  0
   14.3850    0.7512   12.3228 N   0  0  0  0  0  0  0  0  0  0  0  0
   14.0766   -0.3493   13.1996 C   0  0  0  0  0  0  0  0  0  0  0  0
   14.1210    0.0893   14.6630 C   0  0  0  0  0  0  0  0  0  0  0  0
   13.9136   -1.0258   15.6924 C   0  0  0  0  0  0  0  0  0  0  0  0
   12.7041   -1.9556   15.5024 C   0  0  0  0  0  0  0  0  0  0  0  0
   12.9676   -3.1154   16.4573 C   0  0  0  0  0  0  0  0  0  0  0  0
   14.4671   -3.1782   16.4583 C   0  0  0  0  0  0  0  0  0  0  0  0
   15.1079   -4.0930   16.9570 O   0  0  0  0  0  0  0  0  0  0  0  0
   15.0926   -1.9921   15.7778 C   0  0  0  0  0  0  0  0  0  0  0  0
   15.2116    3.1762   11.3950 H   0  0  0  0  0  0  0  0  0  0  0  0
   14.6954    2.0782   10.0751 H   0  0  0  0  0  0  0  0  0  0  0  0
   13.7489    3.5314   10.4455 H   0  0  0  0  0  0  0  0  0  0  0  0
   15.3016    0.8167   11.8948 H   0  0  0  0  0  0  0  0  0  0  0  0
   14.7952   -1.1446   12.9868 H   0  0  0  0  0  0  0  0  0  0  0  0
   13.0724   -0.6944   12.9368 H   0  0  0  0  0  0  0  0  0  0  0  0
   15.0772    0.5890   14.8663 H   0  0  0  0  0  0  0  0  0  0  0  0
   13.3453    0.8506   14.8193 H   0  0  0  0  0  0  0  0  0  0  0  0
   13.8068   -0.5416   16.6749 H   0  0  0  0  0  0  0  0  0  0  0  0
   12.6513   -2.3360   14.4761 H   0  0  0  0  0  0  0  0  0  0  0  0
   11.7581   -1.4522   15.7239 H   0  0  0  0  0  0  0  0  0  0  0  0
   12.6384   -2.8925   17.4701 H   0  0  0  0  0  0  0  0  0  0  0  0
   12.5220   -4.0465   16.1067 H   0  0  0  0  0  0  0  0  0  0  0  0
   15.9062   -1.5831   16.3820 H   0  0  0  0  0  0  0  0  0  0  0  0
   15.4633   -2.3089   14.7999 H   0  0  0  0  0  0  0  0  0  0  0  0
  1  2  1  0
  2  3  2  0
  2  4  1  0
  4  5  1  0
  5  6  1  0
  6  7  1  0
  7  8  1  0
  8  9  1  0
  9 10  1  0
 10 11  2  0
 10 12  1  0
 12  7  1  0
  1 13  1  0
  1 14  1  0
  1 15  1  0
  4 16  1  0
  5 17  1  0
  5 18  1  0
  6 19  1  0
  6 20  1  0
  7 21  1  0
  8 22  1  0
  8 23  1  0
  9 24  1  0
  9 25  1  0
 12 26  1  0
 12 27  1  0
M  END
>  <Energy>  (374) 
3.4876813457974647

>  <compound_id>  (374) 
62061

>  <target_id>  (374) 
1

>  <reference_id>  (374) 
98

>  <inspiration_ids>  (374) 
[97, 98]

>  <energy_score>  (374) 
-6.953272035532052

>  <distance_score>  (374) 
3.185653844232753

>  <path>  (374) 
/opt/xchem-fragalysis-2/maxwin/BulkDock/SCRATCH/511021/C62061-P98/C62061-P98.minimised.mol

>  <scratch_subdir>  (374) 
/opt/xchem-fragalysis-2/maxwin/BulkDock/SCRATCH/511021/C62061-P98

>  <fragmenstein_runtime>  (374) 
1.513638973236084

>  <fragmenstein_outcome>  (374) 
too moved

>  <fragmenstein_mode>  (374) 
expansion

>  <fragmenstein_error>  (374) 


$$$$
C62063-P97
     RDKit          3D

 30 30  0  0  0  0  0  0  0  0999 V2000
   17.1309   -2.4682   11.1902 C   0  0  0  0  0  0  0  0  0  0  0  0
   17.5990   -2.3396   12.6237 C   0  0  0  0  0  0  0  0  0  0  0  0
   18.4719   -2.9673   13.0750 O   0  0  0  0  0  0  0  0  0  0  0  0
   16.6878   -1.2707   13.2786 N   0  0  0  0  0  0  0  0  0  0  0  0
   16.7270   -0.6890   14.5946 C   0  0  0  0  0  0  0  0  0  0  0  0
   15.3752   -0.1288   15.0309 C   0  0  0  0  0  0  0  0  0  0  0  0
   14.2295   -1.1624   15.0381 C   0  0  0  0  0  0  0  0  0  0  0  0
   12.9244   -0.4902   15.4579 C   0  0  0  0  0  0  0  0  0  0  0  0
   11.7290   -1.4169   15.2723 C   0  0  0  0  0  0  0  0  0  0  0  0
   12.0327   -2.9012   15.4165 C   0  0  0  0  0  0  0  0  0  0  0  0
   13.2683   -3.1887   16.2432 C   0  0  0  0  0  0  0  0  0  0  0  0
   13.3197   -4.1258   17.0409 O   0  0  0  0  0  0  0  0  0  0  0  0
   14.4979   -2.3419   15.9833 C   0  0  0  0  0  0  0  0  0  0  0  0
   16.0637   -2.7054   11.1605 H   0  0  0  0  0  0  0  0  0  0  0  0
   17.6806   -3.2771   10.7003 H   0  0  0  0  0  0  0  0  0  0  0  0
   17.3236   -1.5359   10.6525 H   0  0  0  0  0  0  0  0  0  0  0  0
   16.0838   -0.8632   12.5745 H   0  0  0  0  0  0  0  0  0  0  0  0
   17.4696    0.1153   14.5642 H   0  0  0  0  0  0  0  0  0  0  0  0
   17.1019   -1.4449   15.2915 H   0  0  0  0  0  0  0  0  0  0  0  0
   15.1024    0.6924   14.3552 H   0  0  0  0  0  0  0  0  0  0  0  0
   15.4839    0.3106   16.0304 H   0  0  0  0  0  0  0  0  0  0  0  0
   14.1011   -1.5479   14.0176 H   0  0  0  0  0  0  0  0  0  0  0  0
   12.7540    0.4281   14.8831 H   0  0  0  0  0  0  0  0  0  0  0  0
   12.9896   -0.1870   16.5106 H   0  0  0  0  0  0  0  0  0  0  0  0
   11.3153   -1.2509   14.2720 H   0  0  0  0  0  0  0  0  0  0  0  0
   10.9356   -1.1191   15.9637 H   0  0  0  0  0  0  0  0  0  0  0  0
   12.1910   -3.3210   14.4196 H   0  0  0  0  0  0  0  0  0  0  0  0
   11.1773   -3.4258   15.8484 H   0  0  0  0  0  0  0  0  0  0  0  0
   14.8474   -1.9733   16.9551 H   0  0  0  0  0  0  0  0  0  0  0  0
   15.2705   -2.9934   15.5618 H   0  0  0  0  0  0  0  0  0  0  0  0
  1  2  1  0
  2  3  2  0
  2  4  1  0
  4  5  1  0
  5  6  1  0
  6  7  1  0
  7  8  1  0
  8  9  1  0
  9 10  1  0
 10 11  1  0
 11 12  2  0
 11 13  1  0
 13  7  1  0
  1 14  1  0
  1 15  1  0
  1 16  1  0
  4 17  1  0
  5 18  1  0
  5 19  1  0
  6 20  1  0
  6 21  1  0
  7 22  1  0
  8 23  1  0
  8 24  1  0
  9 25  1  0
  9 26  1  0
 10 27  1  0
 10 28  1  0
 13 29  1  0
 13 30  1  0
M  END
>  <Energy>  (375) 
7.0974823611043085

>  <compound_id>  (375) 
62063

>  <target_id>  (375) 
1

>  <reference_id>  (375) 
97

>  <inspiration_ids>  (375) 
[97, 98]

>  <energy_score>  (375) 
0.07842363949048092

>  <distance_score>  (375) 
2.190535513690174

>  <path>  (375) 
/opt/xchem-fragalysis-2/maxwin/BulkDock/SCRATCH/511021/C62063-P97/C62063-P97.minimised.mol

>  <scratch_subdir>  (375) 
/opt/xchem-fragalysis-2/maxwin/BulkDock/SCRATCH/511021/C62063-P97

>  <fragmenstein_runtime>  (375) 
1.5913403034210205

>  <fragmenstein_outcome>  (375) 
too moved

>  <fragmenstein_mode>  (375) 
expansion

>  <fragmenstein_error>  (375) 


$$$$
C62063-P98
     RDKit          3D

 30 30  0  0  0  0  0  0  0  0999 V2000
   19.1787    2.2301   14.4729 C   0  0  0  0  0  0  0  0  0  0  0  0
   18.3535    1.2425   15.2685 C   0  0  0  0  0  0  0  0  0  0  0  0
   18.4787    1.0785   16.4159 O   0  0  0  0  0  0  0  0  0  0  0  0
   17.3667    0.5963   14.2640 N   0  0  0  0  0  0  0  0  0  0  0  0
   16.3963   -0.4528   14.4493 C   0  0  0  0  0  0  0  0  0  0  0  0
   15.2059    0.0421   15.2696 C   0  0  0  0  0  0  0  0  0  0  0  0
   14.0656   -0.9749   15.4757 C   0  0  0  0  0  0  0  0  0  0  0  0
   13.3975   -1.3777   14.1620 C   0  0  0  0  0  0  0  0  0  0  0  0
   12.1559   -2.2420   14.3803 C   0  0  0  0  0  0  0  0  0  0  0  0
   12.0618   -2.9013   15.7480 C   0  0  0  0  0  0  0  0  0  0  0  0
   13.4040   -3.2697   16.3335 C   0  0  0  0  0  0  0  0  0  0  0  0
   13.5928   -4.3336   16.9239 O   0  0  0  0  0  0  0  0  0  0  0  0
   14.5113   -2.2424   16.2205 C   0  0  0  0  0  0  0  0  0  0  0  0
   19.6745    1.7225   13.6409 H   0  0  0  0  0  0  0  0  0  0  0  0
   19.9463    2.6656   15.1193 H   0  0  0  0  0  0  0  0  0  0  0  0
   18.5373    3.0320   14.0973 H   0  0  0  0  0  0  0  0  0  0  0  0
   17.4773    1.0294   13.3542 H   0  0  0  0  0  0  0  0  0  0  0  0
   16.9077   -1.2693   14.9667 H   0  0  0  0  0  0  0  0  0  0  0  0
   16.0936   -0.7915   13.4552 H   0  0  0  0  0  0  0  0  0  0  0  0
   14.7924    0.9404   14.7918 H   0  0  0  0  0  0  0  0  0  0  0  0
   15.5631    0.3681   16.2554 H   0  0  0  0  0  0  0  0  0  0  0  0
   13.3103   -0.4663   16.0921 H   0  0  0  0  0  0  0  0  0  0  0  0
   14.1048   -1.9397   13.5398 H   0  0  0  0  0  0  0  0  0  0  0  0
   13.1197   -0.4900   13.5809 H   0  0  0  0  0  0  0  0  0  0  0  0
   12.1010   -2.9988   13.5895 H   0  0  0  0  0  0  0  0  0  0  0  0
   11.2671   -1.6144   14.2542 H   0  0  0  0  0  0  0  0  0  0  0  0
   11.4201   -3.7847   15.7033 H   0  0  0  0  0  0  0  0  0  0  0  0
   11.6049   -2.1932   16.4402 H   0  0  0  0  0  0  0  0  0  0  0  0
   14.8387   -1.9803   17.2324 H   0  0  0  0  0  0  0  0  0  0  0  0
   15.3405   -2.7313   15.6983 H   0  0  0  0  0  0  0  0  0  0  0  0
  1  2  1  0
  2  3  2  0
  2  4  1  0
  4  5  1  0
  5  6  1  0
  6  7  1  0
  7  8  1  0
  8  9  1  0
  9 10  1  0
 10 11  1  0
 11 12  2  0
 11 13  1  0
 13  7  1  0
  1 14  1  0
  1 15  1  0
  1 16  1  0
  4 17  1  0
  5 18  1  0
  5 19  1  0
  6 20  1  0
  6 21  1  0
  7 22  1  0
  8 23  1  0
  8 24  1  0
  9 25  1  0
  9 26  1  0
 10 27  1  0
 10 28  1  0
 13 29  1  0
 13 30  1  0
M  END
>  <Energy>  (376) 
7.7010099694255691

>  <compound_id>  (376) 
62063

>  <target_id>  (376) 
1

>  <reference_id>  (376) 
98

>  <inspiration_ids>  (376) 
[97, 98]

>  <energy_score>  (376) 
0.6819512478121652

>  <distance_score>  (376) 
3.116870518492495

>  <path>  (376) 
/opt/xchem-fragalysis-2/maxwin/BulkDock/SCRATCH/511021/C62063-P98/C62063-P98.minimised.mol

>  <scratch_subdir>  (376) 
/opt/xchem-fragalysis-2/maxwin/BulkDock/SCRATCH/511021/C62063-P98

>  <fragmenstein_runtime>  (376) 
1.5833415985107422

>  <fragmenstein_outcome>  (376) 
too moved

>  <fragmenstein_mode>  (376) 
expansion

>  <fragmenstein_error>  (376) 


$$$$
C62064-P97
     RDKit          3D

 26 26  0  0  0  0  0  0  0  0999 V2000
   15.6649    1.4431   15.2833 C   0  0  0  0  0  0  0  0  0  0  0  0
   16.6986    0.8862   16.2462 C   0  0  0  0  0  0  0  0  0  0  0  0
   16.5525   -0.5371   16.3321 N   0  0  0  0  0  0  0  0  0  0  0  0
   17.0547   -1.6570   15.3906 C   0  0  0  0  0  0  0  0  0  0  0  0
   17.7304   -1.6000   14.4413 O   0  0  0  0  0  0  0  0  0  0  0  0
   16.4614   -2.9823   15.9162 C   0  0  0  0  0  0  0  0  0  0  0  0
   15.1311   -2.8087   16.5631 N   0  0  0  0  0  0  0  0  0  0  0  0
   14.5893   -4.1217   16.9554 C   0  0  0  0  0  0  0  0  0  0  0  0
   13.0870   -3.9408   17.0825 C   0  0  0  0  0  0  0  0  0  0  0  0
   12.8385   -2.8716   16.0675 C   0  0  0  0  0  0  0  0  0  0  0  0
   11.7310   -2.5422   15.6602 O   0  0  0  0  0  0  0  0  0  0  0  0
   14.1316   -2.2232   15.6402 C   0  0  0  0  0  0  0  0  0  0  0  0
   14.6487    1.2389   15.6361 H   0  0  0  0  0  0  0  0  0  0  0  0
   15.7802    2.5271   15.1884 H   0  0  0  0  0  0  0  0  0  0  0  0
   15.7693    0.9989   14.2877 H   0  0  0  0  0  0  0  0  0  0  0  0
   16.5740    1.3077   17.2473 H   0  0  0  0  0  0  0  0  0  0  0  0
   17.7064    1.1042   15.8809 H   0  0  0  0  0  0  0  0  0  0  0  0
   16.0469   -0.9511   17.1139 H   0  0  0  0  0  0  0  0  0  0  0  0
   16.3953   -3.6723   15.0661 H   0  0  0  0  0  0  0  0  0  0  0  0
   17.1744   -3.3890   16.6423 H   0  0  0  0  0  0  0  0  0  0  0  0
   15.0271   -4.4617   17.8999 H   0  0  0  0  0  0  0  0  0  0  0  0
   14.8026   -4.8848   16.1996 H   0  0  0  0  0  0  0  0  0  0  0  0
   12.5378   -4.8495   16.8361 H   0  0  0  0  0  0  0  0  0  0  0  0
   12.8313   -3.5732   18.0750 H   0  0  0  0  0  0  0  0  0  0  0  0
   14.0428   -1.1455   15.7905 H   0  0  0  0  0  0  0  0  0  0  0  0
   14.3200   -2.4488   14.5885 H   0  0  0  0  0  0  0  0  0  0  0  0
  1  2  1  0
  2  3  1  0
  3  4  1  0
  4  5  2  0
  4  6  1  0
  6  7  1  0
  7  8  1  0
  8  9  1  0
  9 10  1  0
 10 11  2  0
 10 12  1  0
 12  7  1  0
  1 13  1  0
  1 14  1  0
  1 15  1  0
  2 16  1  0
  2 17  1  0
  3 18  1  0
  6 19  1  0
  6 20  1  0
  8 21  1  0
  8 22  1  0
  9 23  1  0
  9 24  1  0
 12 25  1  0
 12 26  1  0
M  END
>  <Energy>  (377) 
57.235071190211833

>  <compound_id>  (377) 
62064

>  <target_id>  (377) 
1

>  <reference_id>  (377) 
97

>  <inspiration_ids>  (377) 
[97, 98]

>  <energy_score>  (377) 
-6.968487620284407

>  <distance_score>  (377) 
1.8680991975743104

>  <path>  (377) 
/opt/xchem-fragalysis-2/maxwin/BulkDock/SCRATCH/511021/C62064-P97/C62064-P97.minimised.mol

>  <scratch_subdir>  (377) 
/opt/xchem-fragalysis-2/maxwin/BulkDock/SCRATCH/511021/C62064-P97

>  <fragmenstein_runtime>  (377) 
1.098128318786621

>  <fragmenstein_outcome>  (377) 
too moved

>  <fragmenstein_mode>  (377) 
expansion

>  <fragmenstein_error>  (377) 


$$$$
C62064-P98
     RDKit          3D

 26 26  0  0  0  0  0  0  0  0999 V2000
   15.6259    0.8828   14.3686 C   0  0  0  0  0  0  0  0  0  0  0  0
   16.9609    0.5283   14.9948 C   0  0  0  0  0  0  0  0  0  0  0  0
   16.7628   -0.4156   16.0580 N   0  0  0  0  0  0  0  0  0  0  0  0
   16.9694   -1.9576   16.0911 C   0  0  0  0  0  0  0  0  0  0  0  0
   17.4046   -2.6800   15.2831 O   0  0  0  0  0  0  0  0  0  0  0  0
   16.3721   -2.4404   17.4246 C   0  0  0  0  0  0  0  0  0  0  0  0
   14.9350   -2.7413   17.3553 N   0  0  0  0  0  0  0  0  0  0  0  0
   14.6306   -4.1480   17.0911 C   0  0  0  0  0  0  0  0  0  0  0  0
   13.1126   -4.1542   16.9749 C   0  0  0  0  0  0  0  0  0  0  0  0
   12.8824   -2.8397   16.2915 C   0  0  0  0  0  0  0  0  0  0  0  0
   11.8366   -2.4958   15.7540 O   0  0  0  0  0  0  0  0  0  0  0  0
   14.1270   -1.9838   16.3868 C   0  0  0  0  0  0  0  0  0  0  0  0
   14.9391    1.2995   15.1130 H   0  0  0  0  0  0  0  0  0  0  0  0
   15.7625    1.6233   13.5747 H   0  0  0  0  0  0  0  0  0  0  0  0
   15.1487   -0.0005   13.9315 H   0  0  0  0  0  0  0  0  0  0  0  0
   17.4405    1.4158   15.4169 H   0  0  0  0  0  0  0  0  0  0  0  0
   17.6239    0.0792   14.2497 H   0  0  0  0  0  0  0  0  0  0  0  0
   16.4362   -0.0977   16.9636 H   0  0  0  0  0  0  0  0  0  0  0  0
   16.9492   -3.3093   17.7647 H   0  0  0  0  0  0  0  0  0  0  0  0
   16.5317   -1.6780   18.1956 H   0  0  0  0  0  0  0  0  0  0  0  0
   14.9594   -4.7969   17.9092 H   0  0  0  0  0  0  0  0  0  0  0  0
   15.0995   -4.4917   16.1614 H   0  0  0  0  0  0  0  0  0  0  0  0
   12.7430   -4.9916   16.3927 H   0  0  0  0  0  0  0  0  0  0  0  0
   12.6562   -4.1328   17.9639 H   0  0  0  0  0  0  0  0  0  0  0  0
   13.8776   -0.9905   16.7665 H   0  0  0  0  0  0  0  0  0  0  0  0
   14.5533   -1.9452   15.3808 H   0  0  0  0  0  0  0  0  0  0  0  0
  1  2  1  0
  2  3  1  0
  3  4  1  0
  4  5  2  0
  4  6  1  0
  6  7  1  0
  7  8  1  0
  8  9  1  0
  9 10  1  0
 10 11  2  0
 10 12  1  0
 12  7  1  0
  1 13  1  0
  1 14  1  0
  1 15  1  0
  2 16  1  0
  2 17  1  0
  3 18  1  0
  6 19  1  0
  6 20  1  0
  8 21  1  0
  8 22  1  0
  9 23  1  0
  9 24  1  0
 12 25  1  0
 12 26  1  0
M  END
>  <Energy>  (378) 
64.962210492715457

>  <compound_id>  (378) 
62064

>  <target_id>  (378) 
1

>  <reference_id>  (378) 
98

>  <inspiration_ids>  (378) 
[97, 98]

>  <energy_score>  (378) 
0.7586516822191527

>  <distance_score>  (378) 
1.7863246033074234

>  <path>  (378) 
/opt/xchem-fragalysis-2/maxwin/BulkDock/SCRATCH/511021/C62064-P98/C62064-P98.minimised.mol

>  <scratch_subdir>  (378) 
/opt/xchem-fragalysis-2/maxwin/BulkDock/SCRATCH/511021/C62064-P98

>  <fragmenstein_runtime>  (378) 
1.0086331367492676

>  <fragmenstein_outcome>  (378) 
too moved

>  <fragmenstein_mode>  (378) 
expansion

>  <fragmenstein_error>  (378) 


$$$$
C62065-P97
     RDKit          3D

 26 26  0  0  0  0  0  0  0  0999 V2000
   15.8714    1.1905   15.3699 C   0  0  0  0  0  0  0  0  0  0  0  0
   16.8848    0.5103   16.2757 C   0  0  0  0  0  0  0  0  0  0  0  0
   16.6202   -0.8992   16.3189 N   0  0  0  0  0  0  0  0  0  0  0  0
   17.0371   -2.0315   15.3461 C   0  0  0  0  0  0  0  0  0  0  0  0
   17.7238   -2.0033   14.4029 O   0  0  0  0  0  0  0  0  0  0  0  0
   16.3466   -3.3153   15.8456 C   0  0  0  0  0  0  0  0  0  0  0  0
   14.9607   -3.1448   16.2928 N   0  0  0  0  0  0  0  0  0  0  0  0
   14.0202   -2.2769   15.6141 C   0  0  0  0  0  0  0  0  0  0  0  0
   12.6551   -2.8804   15.8621 C   0  0  0  0  0  0  0  0  0  0  0  0
   12.8555   -3.8516   17.0101 C   0  0  0  0  0  0  0  0  0  0  0  0
   14.3255   -4.1246   17.0369 C   0  0  0  0  0  0  0  0  0  0  0  0
   14.8482   -5.0386   17.6527 O   0  0  0  0  0  0  0  0  0  0  0  0
   16.0760    2.2638   15.3103 H   0  0  0  0  0  0  0  0  0  0  0  0
   14.8532    1.0582   15.7502 H   0  0  0  0  0  0  0  0  0  0  0  0
   15.9063    0.7775   14.3561 H   0  0  0  0  0  0  0  0  0  0  0  0
   17.8952    0.6560   15.8826 H   0  0  0  0  0  0  0  0  0  0  0  0
   16.8292    0.9030   17.2945 H   0  0  0  0  0  0  0  0  0  0  0  0
   16.0765   -1.2912   17.0834 H   0  0  0  0  0  0  0  0  0  0  0  0
   16.9394   -3.7427   16.6612 H   0  0  0  0  0  0  0  0  0  0  0  0
   16.3338   -4.0390   15.0245 H   0  0  0  0  0  0  0  0  0  0  0  0
   14.0732   -1.2803   16.0591 H   0  0  0  0  0  0  0  0  0  0  0  0
   14.2484   -2.2084   14.5464 H   0  0  0  0  0  0  0  0  0  0  0  0
   11.9023   -2.1186   16.0858 H   0  0  0  0  0  0  0  0  0  0  0  0
   12.3012   -3.4072   14.9713 H   0  0  0  0  0  0  0  0  0  0  0  0
   12.6137   -3.4046   17.9692 H   0  0  0  0  0  0  0  0  0  0  0  0
   12.2874   -4.7699   16.8581 H   0  0  0  0  0  0  0  0  0  0  0  0
  1  2  1  0
  2  3  1  0
  3  4  1  0
  4  5  2  0
  4  6  1  0
  6  7  1  0
  7  8  1  0
  8  9  1  0
  9 10  1  0
 10 11  1  0
 11 12  2  0
 11  7  1  0
  1 13  1  0
  1 14  1  0
  1 15  1  0
  2 16  1  0
  2 17  1  0
  3 18  1  0
  6 19  1  0
  6 20  1  0
  8 21  1  0
  8 22  1  0
  9 23  1  0
  9 24  1  0
 10 25  1  0
 10 26  1  0
M  END
>  <Energy>  (379) 
8.4508952991819335

>  <compound_id>  (379) 
62065

>  <target_id>  (379) 
1

>  <reference_id>  (379) 
97

>  <inspiration_ids>  (379) 
[97, 98]

>  <energy_score>  (379) 
-3.3892215551785796

>  <distance_score>  (379) 
1.6581952729435498

>  <path>  (379) 
/opt/xchem-fragalysis-2/maxwin/BulkDock/SCRATCH/511021/C62065-P97/C62065-P97.minimised.mol

>  <scratch_subdir>  (379) 
/opt/xchem-fragalysis-2/maxwin/BulkDock/SCRATCH/511021/C62065-P97

>  <fragmenstein_runtime>  (379) 
0.8096821308135986

>  <fragmenstein_outcome>  (379) 
too moved

>  <fragmenstein_mode>  (379) 
expansion

>  <fragmenstein_error>  (379) 


$$$$
C62065-P98
     RDKit          3D

 26 26  0  0  0  0  0  0  0  0999 V2000
   16.0141    1.0550   15.3838 C   0  0  0  0  0  0  0  0  0  0  0  0
   17.0445    0.3355   16.2404 C   0  0  0  0  0  0  0  0  0  0  0  0
   16.7276   -1.0631   16.3041 N   0  0  0  0  0  0  0  0  0  0  0  0
   17.0868   -2.2215   15.3382 C   0  0  0  0  0  0  0  0  0  0  0  0
   17.7597   -2.2297   14.3846 O   0  0  0  0  0  0  0  0  0  0  0  0
   16.3469   -3.4717   15.8563 C   0  0  0  0  0  0  0  0  0  0  0  0
   14.9666   -3.2419   16.2937 N   0  0  0  0  0  0  0  0  0  0  0  0
   14.0781   -2.3067   15.6319 C   0  0  0  0  0  0  0  0  0  0  0  0
   12.6854   -2.8548   15.8458 C   0  0  0  0  0  0  0  0  0  0  0  0
   12.8264   -3.7987   17.0239 C   0  0  0  0  0  0  0  0  0  0  0  0
   14.2690   -4.1992   17.0164 C   0  0  0  0  0  0  0  0  0  0  0  0
   14.7261   -5.1757   17.5876 O   0  0  0  0  0  0  0  0  0  0  0  0
   15.0127    0.9683   15.8181 H   0  0  0  0  0  0  0  0  0  0  0  0
   15.9781    0.6357   14.3727 H   0  0  0  0  0  0  0  0  0  0  0  0
   16.2610    2.1182   15.3064 H   0  0  0  0  0  0  0  0  0  0  0  0
   18.0387    0.4404   15.7965 H   0  0  0  0  0  0  0  0  0  0  0  0
   17.0559    0.7327   17.2590 H   0  0  0  0  0  0  0  0  0  0  0  0
   16.1812   -1.4256   17.0811 H   0  0  0  0  0  0  0  0  0  0  0  0
   16.9176   -3.9075   16.6832 H   0  0  0  0  0  0  0  0  0  0  0  0
   16.3126   -4.2090   15.0483 H   0  0  0  0  0  0  0  0  0  0  0  0
   14.1702   -1.3304   16.1141 H   0  0  0  0  0  0  0  0  0  0  0  0
   14.3212   -2.2143   14.5695 H   0  0  0  0  0  0  0  0  0  0  0  0
   11.9490   -2.0656   16.0247 H   0  0  0  0  0  0  0  0  0  0  0  0
   12.3502   -3.4009   14.9591 H   0  0  0  0  0  0  0  0  0  0  0  0
   12.6489   -3.2962   17.9721 H   0  0  0  0  0  0  0  0  0  0  0  0
   12.1727   -4.6609   16.9094 H   0  0  0  0  0  0  0  0  0  0  0  0
  1  2  1  0
  2  3  1  0
  3  4  1  0
  4  5  2  0
  4  6  1  0
  6  7  1  0
  7  8  1  0
  8  9  1  0
  9 10  1  0
 10 11  1  0
 11 12  2  0
 11  7  1  0
  1 13  1  0
  1 14  1  0
  1 15  1  0
  2 16  1  0
  2 17  1  0
  3 18  1  0
  6 19  1  0
  6 20  1  0
  8 21  1  0
  8 22  1  0
  9 23  1  0
  9 24  1  0
 10 25  1  0
 10 26  1  0
M  END
>  <Energy>  (380) 
8.4852880960884498

>  <compound_id>  (380) 
62065

>  <target_id>  (380) 
1

>  <reference_id>  (380) 
98

>  <inspiration_ids>  (380) 
[97, 98]

>  <energy_score>  (380) 
-3.354828758272646

>  <distance_score>  (380) 
1.6584884996239437

>  <path>  (380) 
/opt/xchem-fragalysis-2/maxwin/BulkDock/SCRATCH/511021/C62065-P98/C62065-P98.minimised.mol

>  <scratch_subdir>  (380) 
/opt/xchem-fragalysis-2/maxwin/BulkDock/SCRATCH/511021/C62065-P98

>  <fragmenstein_runtime>  (380) 
0.8297436237335205

>  <fragmenstein_outcome>  (380) 
too moved

>  <fragmenstein_mode>  (380) 
expansion

>  <fragmenstein_error>  (380) 


$$$$
C62066-P97
     RDKit          3D

 32 32  0  0  0  0  0  0  0  0999 V2000
   16.4810    1.4326   15.5632 C   0  0  0  0  0  0  0  0  0  0  0  0
   17.6916    0.6335   16.0301 C   0  0  0  0  0  0  0  0  0  0  0  0
   17.3775   -0.7604   15.9155 N   0  0  0  0  0  0  0  0  0  0  0  0
   16.7762   -1.7492   16.9562 C   0  0  0  0  0  0  0  0  0  0  0  0
   16.5189   -1.5953   18.0853 O   0  0  0  0  0  0  0  0  0  0  0  0
   16.4445   -3.0503   16.1809 C   0  0  0  0  0  0  0  0  0  0  0  0
   15.0051   -3.0045   15.8346 N   0  0  0  0  0  0  0  0  0  0  0  0
   14.5856   -1.8126   15.0842 C   0  0  0  0  0  0  0  0  0  0  0  0
   13.5171   -1.9268   14.0030 C   0  0  0  0  0  0  0  0  0  0  0  0
   12.1504   -2.3624   14.4652 C   0  0  0  0  0  0  0  0  0  0  0  0
   12.0109   -2.4314   15.9644 C   0  0  0  0  0  0  0  0  0  0  0  0
   12.6848   -3.6205   16.6130 C   0  0  0  0  0  0  0  0  0  0  0  0
   14.1842   -3.7931   16.6251 C   0  0  0  0  0  0  0  0  0  0  0  0
   14.6335   -4.6958   17.3451 O   0  0  0  0  0  0  0  0  0  0  0  0
   15.6037    1.2176   16.1827 H   0  0  0  0  0  0  0  0  0  0  0  0
   16.2261    1.1921   14.5255 H   0  0  0  0  0  0  0  0  0  0  0  0
   16.6887    2.5051   15.6259 H   0  0  0  0  0  0  0  0  0  0  0  0
   17.9157    0.8581   17.0766 H   0  0  0  0  0  0  0  0  0  0  0  0
   18.5669    0.8438   15.4099 H   0  0  0  0  0  0  0  0  0  0  0  0
   17.5479   -1.2480   15.0439 H   0  0  0  0  0  0  0  0  0  0  0  0
   16.7098   -3.9044   16.8106 H   0  0  0  0  0  0  0  0  0  0  0  0
   17.0147   -3.1427   15.2519 H   0  0  0  0  0  0  0  0  0  0  0  0
   14.3292   -1.0303   15.8072 H   0  0  0  0  0  0  0  0  0  0  0  0
   15.4599   -1.4584   14.5303 H   0  0  0  0  0  0  0  0  0  0  0  0
   13.8609   -2.5439   13.1677 H   0  0  0  0  0  0  0  0  0  0  0  0
   13.4122   -0.9263   13.5588 H   0  0  0  0  0  0  0  0  0  0  0  0
   11.8718   -3.3166   14.0069 H   0  0  0  0  0  0  0  0  0  0  0  0
   11.4259   -1.6319   14.0914 H   0  0  0  0  0  0  0  0  0  0  0  0
   12.3178   -1.4935   16.4386 H   0  0  0  0  0  0  0  0  0  0  0  0
   10.9386   -2.5165   16.1400 H   0  0  0  0  0  0  0  0  0  0  0  0
   12.4354   -3.5876   17.6760 H   0  0  0  0  0  0  0  0  0  0  0  0
   12.2460   -4.5451   16.2340 H   0  0  0  0  0  0  0  0  0  0  0  0
  1  2  1  0
  2  3  1  0
  3  4  1  0
  4  5  2  0
  4  6  1  0
  6  7  1  0
  7  8  1  0
  8  9  1  0
  9 10  1  0
 10 11  1  0
 11 12  1  0
 12 13  1  0
 13 14  2  0
 13  7  1  0
  1 15  1  0
  1 16  1  0
  1 17  1  0
  2 18  1  0
  2 19  1  0
  3 20  1  0
  6 21  1  0
  6 22  1  0
  8 23  1  0
  8 24  1  0
  9 25  1  0
  9 26  1  0
 10 27  1  0
 10 28  1  0
 11 29  1  0
 11 30  1  0
 12 31  1  0
 12 32  1  0
M  END
>  <Energy>  (381) 
31.501388656756511

>  <compound_id>  (381) 
62066

>  <target_id>  (381) 
1

>  <reference_id>  (381) 
97

>  <inspiration_ids>  (381) 
[97, 98]

>  <energy_score>  (381) 
-6.385433599641772

>  <distance_score>  (381) 
1.8965506356929676

>  <path>  (381) 
/opt/xchem-fragalysis-2/maxwin/BulkDock/SCRATCH/511021/C62066-P97/C62066-P97.minimised.mol

>  <scratch_subdir>  (381) 
/opt/xchem-fragalysis-2/maxwin/BulkDock/SCRATCH/511021/C62066-P97

>  <fragmenstein_runtime>  (381) 
1.466163158416748

>  <fragmenstein_outcome>  (381) 
too moved

>  <fragmenstein_mode>  (381) 
expansion

>  <fragmenstein_error>  (381) 


$$$$
C62066-P98
     RDKit          3D

 32 32  0  0  0  0  0  0  0  0999 V2000
   16.5197    1.3509   15.5615 C   0  0  0  0  0  0  0  0  0  0  0  0
   17.7250    0.5210   15.9873 C   0  0  0  0  0  0  0  0  0  0  0  0
   17.3837   -0.8651   15.8537 N   0  0  0  0  0  0  0  0  0  0  0  0
   16.7975   -1.8657   16.8919 C   0  0  0  0  0  0  0  0  0  0  0  0
   16.5774   -1.7314   18.0313 O   0  0  0  0  0  0  0  0  0  0  0  0
   16.4198   -3.1449   16.1014 C   0  0  0  0  0  0  0  0  0  0  0  0
   14.9719   -3.0689   15.8001 N   0  0  0  0  0  0  0  0  0  0  0  0
   14.5470   -1.8575   15.0855 C   0  0  0  0  0  0  0  0  0  0  0  0
   13.4652   -1.9479   14.0136 C   0  0  0  0  0  0  0  0  0  0  0  0
   12.1141   -2.4285   14.4760 C   0  0  0  0  0  0  0  0  0  0  0  0
   11.9823   -2.4805   15.9762 C   0  0  0  0  0  0  0  0  0  0  0  0
   12.6647   -3.6598   16.6358 C   0  0  0  0  0  0  0  0  0  0  0  0
   14.1599   -3.8707   16.5873 C   0  0  0  0  0  0  0  0  0  0  0  0
   14.6128   -4.8078   17.2605 O   0  0  0  0  0  0  0  0  0  0  0  0
   16.7480    2.4180   15.6414 H   0  0  0  0  0  0  0  0  0  0  0  0
   15.6514    1.1384   16.1944 H   0  0  0  0  0  0  0  0  0  0  0  0
   16.2397    1.1359   14.5247 H   0  0  0  0  0  0  0  0  0  0  0  0
   17.9756    0.7216   17.0327 H   0  0  0  0  0  0  0  0  0  0  0  0
   18.5907    0.7273   15.3524 H   0  0  0  0  0  0  0  0  0  0  0  0
   17.5192   -1.3370   14.9675 H   0  0  0  0  0  0  0  0  0  0  0  0
   16.6884   -4.0157   16.7065 H   0  0  0  0  0  0  0  0  0  0  0  0
   16.9603   -3.2281   15.1540 H   0  0  0  0  0  0  0  0  0  0  0  0
   14.3012   -1.0935   15.8314 H   0  0  0  0  0  0  0  0  0  0  0  0
   15.4134   -1.4887   14.5293 H   0  0  0  0  0  0  0  0  0  0  0  0
   13.8066   -2.5288   13.1513 H   0  0  0  0  0  0  0  0  0  0  0  0
   13.3372   -0.9327   13.6112 H   0  0  0  0  0  0  0  0  0  0  0  0
   11.8735   -3.3990   14.0327 H   0  0  0  0  0  0  0  0  0  0  0  0
   11.3611   -1.7345   14.0885 H   0  0  0  0  0  0  0  0  0  0  0  0
   12.2844   -1.5355   16.4397 H   0  0  0  0  0  0  0  0  0  0  0  0
   10.9122   -2.5688   16.1586 H   0  0  0  0  0  0  0  0  0  0  0  0
   12.4572   -3.5924   17.7070 H   0  0  0  0  0  0  0  0  0  0  0  0
   12.1954   -4.5848   16.2915 H   0  0  0  0  0  0  0  0  0  0  0  0
  1  2  1  0
  2  3  1  0
  3  4  1  0
  4  5  2  0
  4  6  1  0
  6  7  1  0
  7  8  1  0
  8  9  1  0
  9 10  1  0
 10 11  1  0
 11 12  1  0
 12 13  1  0
 13 14  2  0
 13  7  1  0
  1 15  1  0
  1 16  1  0
  1 17  1  0
  2 18  1  0
  2 19  1  0
  3 20  1  0
  6 21  1  0
  6 22  1  0
  8 23  1  0
  8 24  1  0
  9 25  1  0
  9 26  1  0
 10 27  1  0
 10 28  1  0
 11 29  1  0
 11 30  1  0
 12 31  1  0
 12 32  1  0
M  END
>  <Energy>  (382) 
31.467017684787422

>  <compound_id>  (382) 
62066

>  <target_id>  (382) 
1

>  <reference_id>  (382) 
98

>  <inspiration_ids>  (382) 
[97, 98]

>  <energy_score>  (382) 
-6.419804571610683

>  <distance_score>  (382) 
1.8947027478026603

>  <path>  (382) 
/opt/xchem-fragalysis-2/maxwin/BulkDock/SCRATCH/511021/C62066-P98/C62066-P98.minimised.mol

>  <scratch_subdir>  (382) 
/opt/xchem-fragalysis-2/maxwin/BulkDock/SCRATCH/511021/C62066-P98

>  <fragmenstein_runtime>  (382) 
1.4708800315856934

>  <fragmenstein_outcome>  (382) 
too moved

>  <fragmenstein_mode>  (382) 
expansion

>  <fragmenstein_error>  (382) 


$$$$
C62067-P97
     RDKit          3D

 29 29  0  0  0  0  0  0  0  0999 V2000
   16.0029    1.5305   15.0596 C   0  0  0  0  0  0  0  0  0  0  0  0
   17.2913    0.7487   15.2490 C   0  0  0  0  0  0  0  0  0  0  0  0
   16.9739   -0.6473   15.3134 N   0  0  0  0  0  0  0  0  0  0  0  0
   16.5968   -1.5418   16.5286 C   0  0  0  0  0  0  0  0  0  0  0  0
   16.5635   -1.2933   17.6695 O   0  0  0  0  0  0  0  0  0  0  0  0
   16.1349   -2.8935   15.9452 C   0  0  0  0  0  0  0  0  0  0  0  0
   14.6685   -2.9267   15.8840 N   0  0  0  0  0  0  0  0  0  0  0  0
   13.9535   -1.7638   15.3469 C   0  0  0  0  0  0  0  0  0  0  0  0
   12.6604   -2.1393   14.6602 C   0  0  0  0  0  0  0  0  0  0  0  0
   11.7941   -3.0075   15.5412 C   0  0  0  0  0  0  0  0  0  0  0  0
   12.5077   -3.7166   16.6847 C   0  0  0  0  0  0  0  0  0  0  0  0
   13.9983   -3.8967   16.6091 C   0  0  0  0  0  0  0  0  0  0  0  0
   14.5458   -4.8095   17.2266 O   0  0  0  0  0  0  0  0  0  0  0  0
   15.3095    1.3578   15.8899 H   0  0  0  0  0  0  0  0  0  0  0  0
   16.2136    2.6030   15.0076 H   0  0  0  0  0  0  0  0  0  0  0  0
   15.4957    1.2358   14.1346 H   0  0  0  0  0  0  0  0  0  0  0  0
   17.9783    0.9094   14.4140 H   0  0  0  0  0  0  0  0  0  0  0  0
   17.7760    1.0382   16.1858 H   0  0  0  0  0  0  0  0  0  0  0  0
   16.9755   -1.2068   14.4680 H   0  0  0  0  0  0  0  0  0  0  0  0
   16.5115   -3.0588   14.9317 H   0  0  0  0  0  0  0  0  0  0  0  0
   16.5385   -3.6935   16.5737 H   0  0  0  0  0  0  0  0  0  0  0  0
   14.5845   -1.2652   14.6068 H   0  0  0  0  0  0  0  0  0  0  0  0
   13.7656   -1.0728   16.1769 H   0  0  0  0  0  0  0  0  0  0  0  0
   12.1144   -1.2349   14.3665 H   0  0  0  0  0  0  0  0  0  0  0  0
   12.8753   -2.6658   13.7248 H   0  0  0  0  0  0  0  0  0  0  0  0
   11.2610   -3.7307   14.9158 H   0  0  0  0  0  0  0  0  0  0  0  0
   11.0026   -2.3776   15.9589 H   0  0  0  0  0  0  0  0  0  0  0  0
   12.3791   -3.1405   17.5975 H   0  0  0  0  0  0  0  0  0  0  0  0
   12.0470   -4.6961   16.8386 H   0  0  0  0  0  0  0  0  0  0  0  0
  1  2  1  0
  2  3  1  0
  3  4  1  0
  4  5  2  0
  4  6  1  0
  6  7  1  0
  7  8  1  0
  8  9  1  0
  9 10  1  0
 10 11  1  0
 11 12  1  0
 12 13  2  0
 12  7  1  0
  1 14  1  0
  1 15  1  0
  1 16  1  0
  2 17  1  0
  2 18  1  0
  3 19  1  0
  6 20  1  0
  6 21  1  0
  8 22  1  0
  8 23  1  0
  9 24  1  0
  9 25  1  0
 10 26  1  0
 10 27  1  0
 11 28  1  0
 11 29  1  0
M  END
>  <Energy>  (383) 
18.992216124614949

>  <compound_id>  (383) 
62067

>  <target_id>  (383) 
1

>  <reference_id>  (383) 
97

>  <inspiration_ids>  (383) 
[97, 98]

>  <energy_score>  (383) 
5.637474185603651

>  <distance_score>  (383) 
2.1070025410713145

>  <path>  (383) 
/opt/xchem-fragalysis-2/maxwin/BulkDock/SCRATCH/511021/C62067-P97/C62067-P97.minimised.mol

>  <scratch_subdir>  (383) 
/opt/xchem-fragalysis-2/maxwin/BulkDock/SCRATCH/511021/C62067-P97

>  <fragmenstein_runtime>  (383) 
3.1299641132354736

>  <fragmenstein_outcome>  (383) 
too moved

>  <fragmenstein_mode>  (383) 
expansion

>  <fragmenstein_error>  (383) 


$$$$
C62067-P98
     RDKit          3D

 29 29  0  0  0  0  0  0  0  0999 V2000
   15.9215    0.6727   13.9038 C   0  0  0  0  0  0  0  0  0  0  0  0
   16.7809   -0.5639   13.6914 C   0  0  0  0  0  0  0  0  0  0  0  0
   16.4961   -1.5201   14.7213 N   0  0  0  0  0  0  0  0  0  0  0  0
   16.9864   -1.5931   16.1906 C   0  0  0  0  0  0  0  0  0  0  0  0
   17.7570   -0.9304   16.7645 O   0  0  0  0  0  0  0  0  0  0  0  0
   16.1842   -2.7235   16.8605 C   0  0  0  0  0  0  0  0  0  0  0  0
   14.7686   -2.7833   16.4553 N   0  0  0  0  0  0  0  0  0  0  0  0
   13.9769   -1.5471   16.4790 C   0  0  0  0  0  0  0  0  0  0  0  0
   12.8038   -1.6098   15.5133 C   0  0  0  0  0  0  0  0  0  0  0  0
   12.1055   -2.9576   15.5436 C   0  0  0  0  0  0  0  0  0  0  0  0
   12.5948   -3.8631   16.6622 C   0  0  0  0  0  0  0  0  0  0  0  0
   14.0943   -3.9648   16.7797 C   0  0  0  0  0  0  0  0  0  0  0  0
   14.6327   -4.9753   17.2255 O   0  0  0  0  0  0  0  0  0  0  0  0
   14.8563    0.4250   13.8523 H   0  0  0  0  0  0  0  0  0  0  0  0
   16.1135    1.1262   14.8821 H   0  0  0  0  0  0  0  0  0  0  0  0
   16.1353    1.4193   13.1329 H   0  0  0  0  0  0  0  0  0  0  0  0
   17.8402   -0.2987   13.7543 H   0  0  0  0  0  0  0  0  0  0  0  0
   16.5751   -1.0275   12.7229 H   0  0  0  0  0  0  0  0  0  0  0  0
   15.7556   -2.2027   14.5757 H   0  0  0  0  0  0  0  0  0  0  0  0
   16.6772   -3.6740   16.6285 H   0  0  0  0  0  0  0  0  0  0  0  0
   16.2082   -2.5762   17.9464 H   0  0  0  0  0  0  0  0  0  0  0  0
   14.5918   -0.6763   16.2420 H   0  0  0  0  0  0  0  0  0  0  0  0
   13.6258   -1.4069   17.5049 H   0  0  0  0  0  0  0  0  0  0  0  0
   12.0960   -0.8058   15.7461 H   0  0  0  0  0  0  0  0  0  0  0  0
   13.1586   -1.4215   14.4924 H   0  0  0  0  0  0  0  0  0  0  0  0
   12.2521   -3.4386   14.5738 H   0  0  0  0  0  0  0  0  0  0  0  0
   11.0240   -2.8101   15.6289 H   0  0  0  0  0  0  0  0  0  0  0  0
   12.2724   -3.4807   17.6265 H   0  0  0  0  0  0  0  0  0  0  0  0
   12.1780   -4.8614   16.5324 H   0  0  0  0  0  0  0  0  0  0  0  0
  1  2  1  0
  2  3  1  0
  3  4  1  0
  4  5  2  0
  4  6  1  0
  6  7  1  0
  7  8  1  0
  8  9  1  0
  9 10  1  0
 10 11  1  0
 11 12  1  0
 12 13  2  0
 12  7  1  0
  1 14  1  0
  1 15  1  0
  1 16  1  0
  2 17  1  0
  2 18  1  0
  3 19  1  0
  6 20  1  0
  6 21  1  0
  8 22  1  0
  8 23  1  0
  9 24  1  0
  9 25  1  0
 10 26  1  0
 10 27  1  0
 11 28  1  0
 11 29  1  0
M  END
>  <Energy>  (384) 
12.05079241051995

>  <compound_id>  (384) 
62067

>  <target_id>  (384) 
1

>  <reference_id>  (384) 
98

>  <inspiration_ids>  (384) 
[97, 98]

>  <energy_score>  (384) 
-1.3039495284910885

>  <distance_score>  (384) 
2.0846637447106486

>  <path>  (384) 
/opt/xchem-fragalysis-2/maxwin/BulkDock/SCRATCH/511021/C62067-P98/C62067-P98.minimised.mol

>  <scratch_subdir>  (384) 
/opt/xchem-fragalysis-2/maxwin/BulkDock/SCRATCH/511021/C62067-P98

>  <fragmenstein_runtime>  (384) 
3.809403657913208

>  <fragmenstein_outcome>  (384) 
too moved

>  <fragmenstein_mode>  (384) 
expansion

>  <fragmenstein_error>  (384) 


$$$$
C62069-P97
     RDKit          3D

 24 24  0  0  0  0  0  0  0  0999 V2000
   16.0352    0.4961   14.0928 C   0  0  0  0  0  0  0  0  0  0  0  0
   17.1195   -0.5714   14.1114 C   0  0  0  0  0  0  0  0  0  0  0  0
   16.8487   -1.5295   15.1474 N   0  0  0  0  0  0  0  0  0  0  0  0
   17.0314   -1.4292   16.6840 C   0  0  0  0  0  0  0  0  0  0  0  0
   17.5013   -0.5829   17.3360 O   0  0  0  0  0  0  0  0  0  0  0  0
   16.3888   -2.6876   17.2907 C   0  0  0  0  0  0  0  0  0  0  0  0
   15.0379   -2.9667   16.7999 N   0  0  0  0  0  0  0  0  0  0  0  0
   14.1119   -1.8812   16.5746 C   0  0  0  0  0  0  0  0  0  0  0  0
   12.5859   -2.6434   16.0361 S   0  0  0  0  0  0  0  0  0  0  0  0
   12.9380   -4.1318   16.9816 C   0  0  0  0  0  0  0  0  0  0  0  0
   14.4257   -4.1470   17.2172 C   0  0  0  0  0  0  0  0  0  0  0  0
   14.9969   -5.0782   17.7719 O   0  0  0  0  0  0  0  0  0  0  0  0
   15.0587    0.0583   13.8613 H   0  0  0  0  0  0  0  0  0  0  0  0
   16.2585    1.2484   13.3302 H   0  0  0  0  0  0  0  0  0  0  0  0
   15.9576    1.0015   15.0611 H   0  0  0  0  0  0  0  0  0  0  0  0
   18.0888   -0.1109   14.3243 H   0  0  0  0  0  0  0  0  0  0  0  0
   17.1694   -1.1011   13.1562 H   0  0  0  0  0  0  0  0  0  0  0  0
   16.3238   -2.3724   14.9214 H   0  0  0  0  0  0  0  0  0  0  0  0
   16.3252   -2.5554   18.3774 H   0  0  0  0  0  0  0  0  0  0  0  0
   17.0332   -3.5509   17.0925 H   0  0  0  0  0  0  0  0  0  0  0  0
   14.4613   -1.1911   15.8106 H   0  0  0  0  0  0  0  0  0  0  0  0
   13.9577   -1.3408   17.5129 H   0  0  0  0  0  0  0  0  0  0  0  0
   12.6127   -5.0315   16.4678 H   0  0  0  0  0  0  0  0  0  0  0  0
   12.4793   -4.0755   17.9623 H   0  0  0  0  0  0  0  0  0  0  0  0
  1  2  1  0
  2  3  1  0
  3  4  1  0
  4  5  2  0
  4  6  1  0
  6  7  1  0
  7  8  1  0
  8  9  1  0
  9 10  1  0
 10 11  1  0
 11 12  2  0
 11  7  1  0
  1 13  1  0
  1 14  1  0
  1 15  1  0
  2 16  1  0
  2 17  1  0
  3 18  1  0
  6 19  1  0
  6 20  1  0
  8 21  1  0
  8 22  1  0
 10 23  1  0
 10 24  1  0
M  END
>  <Energy>  (385) 
7.1695530569742587

>  <compound_id>  (385) 
62069

>  <target_id>  (385) 
1

>  <reference_id>  (385) 
97

>  <inspiration_ids>  (385) 
[97, 98]

>  <energy_score>  (385) 
-3.8092999038224207

>  <distance_score>  (385) 
1.5910117223312499

>  <path>  (385) 
/opt/xchem-fragalysis-2/maxwin/BulkDock/SCRATCH/511021/C62069-P97/C62069-P97.minimised.mol

>  <scratch_subdir>  (385) 
/opt/xchem-fragalysis-2/maxwin/BulkDock/SCRATCH/511021/C62069-P97

>  <fragmenstein_runtime>  (385) 
1.2117674350738525

>  <fragmenstein_outcome>  (385) 
too moved

>  <fragmenstein_mode>  (385) 
expansion

>  <fragmenstein_error>  (385) 


$$$$
C62069-P98
     RDKit          3D

 24 24  0  0  0  0  0  0  0  0999 V2000
   16.0938    1.1475   15.5399 C   0  0  0  0  0  0  0  0  0  0  0  0
   17.0845    0.4254   16.4414 C   0  0  0  0  0  0  0  0  0  0  0  0
   16.7831   -0.9789   16.4672 N   0  0  0  0  0  0  0  0  0  0  0  0
   17.1885   -2.1136   15.4909 C   0  0  0  0  0  0  0  0  0  0  0  0
   17.8922   -2.0947   14.5603 O   0  0  0  0  0  0  0  0  0  0  0  0
   16.4348   -3.3790   15.9468 C   0  0  0  0  0  0  0  0  0  0  0  0
   15.0234   -3.1626   16.2838 N   0  0  0  0  0  0  0  0  0  0  0  0
   14.2188   -2.2728   15.4738 C   0  0  0  0  0  0  0  0  0  0  0  0
   12.4983   -2.5540   15.8680 S   0  0  0  0  0  0  0  0  0  0  0  0
   12.8561   -3.8950   17.0101 C   0  0  0  0  0  0  0  0  0  0  0  0
   14.3366   -4.1412   16.9878 C   0  0  0  0  0  0  0  0  0  0  0  0
   14.8533   -5.0935   17.5636 O   0  0  0  0  0  0  0  0  0  0  0  0
   16.1068    0.7350   14.5256 H   0  0  0  0  0  0  0  0  0  0  0  0
   16.3418    2.2117   15.4814 H   0  0  0  0  0  0  0  0  0  0  0  0
   15.0737    1.0580   15.9272 H   0  0  0  0  0  0  0  0  0  0  0  0
   17.0368    0.8073   17.4648 H   0  0  0  0  0  0  0  0  0  0  0  0
   18.0999    0.5478   16.0532 H   0  0  0  0  0  0  0  0  0  0  0  0
   16.2160   -1.3635   17.2186 H   0  0  0  0  0  0  0  0  0  0  0  0
   16.9569   -3.8091   16.8081 H   0  0  0  0  0  0  0  0  0  0  0  0
   16.4653   -4.1115   15.1326 H   0  0  0  0  0  0  0  0  0  0  0  0
   14.4094   -2.4427   14.4121 H   0  0  0  0  0  0  0  0  0  0  0  0
   14.4491   -1.2351   15.7075 H   0  0  0  0  0  0  0  0  0  0  0  0
   12.3200   -4.7899   16.7007 H   0  0  0  0  0  0  0  0  0  0  0  0
   12.6001   -3.6089   18.0269 H   0  0  0  0  0  0  0  0  0  0  0  0
  1  2  1  0
  2  3  1  0
  3  4  1  0
  4  5  2  0
  4  6  1  0
  6  7  1  0
  7  8  1  0
  8  9  1  0
  9 10  1  0
 10 11  1  0
 11 12  2  0
 11  7  1  0
  1 13  1  0
  1 14  1  0
  1 15  1  0
  2 16  1  0
  2 17  1  0
  3 18  1  0
  6 19  1  0
  6 20  1  0
  8 21  1  0
  8 22  1  0
 10 23  1  0
 10 24  1  0
M  END
>  <Energy>  (386) 
6.9426609122316059

>  <compound_id>  (386) 
62069

>  <target_id>  (386) 
1

>  <reference_id>  (386) 
98

>  <inspiration_ids>  (386) 
[97, 98]

>  <energy_score>  (386) 
-4.0361920485651765

>  <distance_score>  (386) 
1.81724419080908

>  <path>  (386) 
/opt/xchem-fragalysis-2/maxwin/BulkDock/SCRATCH/511021/C62069-P98/C62069-P98.minimised.mol

>  <scratch_subdir>  (386) 
/opt/xchem-fragalysis-2/maxwin/BulkDock/SCRATCH/511021/C62069-P98

>  <fragmenstein_runtime>  (386) 
0.9913170337677002

>  <fragmenstein_outcome>  (386) 
too moved

>  <fragmenstein_mode>  (386) 
expansion

>  <fragmenstein_error>  (386) 


$$$$
C62070-P97
     RDKit          3D

 29 30  0  0  0  0  0  0  0  0999 V2000
   17.6743   -1.4968   16.1383 O   0  0  0  0  0  0  0  0  0  0  0  0
   17.0379   -2.0522   15.3319 C   0  0  0  0  0  0  0  0  0  0  0  0
   16.7409   -3.5633   15.4037 C   0  0  0  0  0  0  0  0  0  0  0  0
   15.7939   -3.8215   16.4719 N   0  0  0  0  0  0  0  0  0  0  0  0
   14.3676   -3.6919   16.3166 C   0  0  0  0  0  0  0  0  0  0  0  0
   13.7860   -3.3578   17.6598 C   0  0  0  0  0  0  0  0  0  0  0  0
   14.7941   -4.3920   18.7419 S   0  0  0  0  0  0  0  0  0  0  0  0
   16.1953   -4.3010   17.6839 C   0  0  0  0  0  0  0  0  0  0  0  0
   17.3193   -4.6536   17.9906 O   0  0  0  0  0  0  0  0  0  0  0  0
   16.2672   -1.4986   14.1019 N   0  0  0  0  0  0  0  0  0  0  0  0
   16.0457   -0.1433   13.6707 C   0  0  0  0  0  0  0  0  0  0  0  0
   15.2250    0.6560   14.6849 C   0  0  0  0  0  0  0  0  0  0  0  0
   13.8394    0.1152   14.8290 C   0  0  0  0  0  0  0  0  0  0  0  0
   13.4358   -0.6744   15.8031 N   0  0  0  0  0  0  0  0  0  0  0  0
   12.1219   -1.0660   15.6570 N   0  0  0  0  0  0  0  0  0  0  0  0
   11.5646   -0.5034   14.6076 C   0  0  0  0  0  0  0  0  0  0  0  0
   12.6092    0.4979   13.6926 S   0  0  0  0  0  0  0  0  0  0  0  0
   17.6918   -4.0708   15.5995 H   0  0  0  0  0  0  0  0  0  0  0  0
   16.3482   -3.9599   14.4715 H   0  0  0  0  0  0  0  0  0  0  0  0
   13.9842   -4.6664   16.0103 H   0  0  0  0  0  0  0  0  0  0  0  0
   14.1286   -2.9555   15.5528 H   0  0  0  0  0  0  0  0  0  0  0  0
   13.9663   -2.3108   17.9141 H   0  0  0  0  0  0  0  0  0  0  0  0
   12.7248   -3.5941   17.7225 H   0  0  0  0  0  0  0  0  0  0  0  0
   15.8874   -2.2709   13.5637 H   0  0  0  0  0  0  0  0  0  0  0  0
   17.0310    0.3216   13.5615 H   0  0  0  0  0  0  0  0  0  0  0  0
   15.5659   -0.1777   12.6875 H   0  0  0  0  0  0  0  0  0  0  0  0
   15.1842    1.7062   14.3715 H   0  0  0  0  0  0  0  0  0  0  0  0
   15.7169    0.6404   15.6651 H   0  0  0  0  0  0  0  0  0  0  0  0
   10.5241   -0.6471   14.3603 H   0  0  0  0  0  0  0  0  0  0  0  0
  1  2  2  0
  2  3  1  0
  3  4  1  0
  4  5  1  0
  5  6  1  0
  6  7  1  0
  7  8  1  0
  8  9  2  0
  2 10  1  0
 10 11  1  0
 11 12  1  0
 12 13  1  0
 13 14  2  0
 14 15  1  0
 15 16  2  0
 16 17  1  0
  8  4  1  0
 17 13  1  0
  3 18  1  0
  3 19  1  0
  5 20  1  0
  5 21  1  0
  6 22  1  0
  6 23  1  0
 10 24  1  0
 11 25  1  0
 11 26  1  0
 12 27  1  0
 12 28  1  0
 16 29  1  0
M  END
>  <Energy>  (387) 
-0.87080451553275662

>  <compound_id>  (387) 
62070

>  <target_id>  (387) 
1

>  <reference_id>  (387) 
97

>  <inspiration_ids>  (387) 
[97, 98]

>  <energy_score>  (387) 
-81.02385139705356

>  <distance_score>  (387) 
2.0162726104817033

>  <path>  (387) 
/opt/xchem-fragalysis-2/maxwin/BulkDock/SCRATCH/511021/C62070-P97/C62070-P97.minimised.mol

>  <scratch_subdir>  (387) 
/opt/xchem-fragalysis-2/maxwin/BulkDock/SCRATCH/511021/C62070-P97

>  <fragmenstein_runtime>  (387) 
2.1934220790863037

>  <fragmenstein_outcome>  (387) 
too moved

>  <fragmenstein_mode>  (387) 
expansion

>  <fragmenstein_error>  (387) 


$$$$
C62070-P98
     RDKit          3D

 29 30  0  0  0  0  0  0  0  0999 V2000
   18.5472   -0.5681   17.6392 O   0  0  0  0  0  0  0  0  0  0  0  0
   17.5136   -1.0830   17.4668 C   0  0  0  0  0  0  0  0  0  0  0  0
   16.9549   -2.1723   18.4225 C   0  0  0  0  0  0  0  0  0  0  0  0
   15.7668   -2.8612   17.9176 N   0  0  0  0  0  0  0  0  0  0  0  0
   14.6476   -3.1059   18.8013 C   0  0  0  0  0  0  0  0  0  0  0  0
   13.5269   -3.7217   17.9954 C   0  0  0  0  0  0  0  0  0  0  0  0
   14.3951   -4.6539   16.7404 S   0  0  0  0  0  0  0  0  0  0  0  0
   15.9252   -3.8525   16.9737 C   0  0  0  0  0  0  0  0  0  0  0  0
   16.9440   -4.1484   16.3762 O   0  0  0  0  0  0  0  0  0  0  0  0
   16.4264   -0.8180   16.3952 N   0  0  0  0  0  0  0  0  0  0  0  0
   16.4287    0.0674   15.2609 C   0  0  0  0  0  0  0  0  0  0  0  0
   15.1074    0.8117   15.0985 C   0  0  0  0  0  0  0  0  0  0  0  0
   13.9561   -0.1259   14.9157 C   0  0  0  0  0  0  0  0  0  0  0  0
   13.2988   -0.6992   15.9053 N   0  0  0  0  0  0  0  0  0  0  0  0
   12.3000   -1.5360   15.4529 N   0  0  0  0  0  0  0  0  0  0  0  0
   12.2610   -1.5857   14.1391 C   0  0  0  0  0  0  0  0  0  0  0  0
   13.3935   -0.5669   13.3554 S   0  0  0  0  0  0  0  0  0  0  0  0
   16.6978   -1.6680   19.3602 H   0  0  0  0  0  0  0  0  0  0  0  0
   17.7428   -2.9103   18.6074 H   0  0  0  0  0  0  0  0  0  0  0  0
   14.3428   -2.1680   19.2733 H   0  0  0  0  0  0  0  0  0  0  0  0
   14.9815   -3.7935   19.5892 H   0  0  0  0  0  0  0  0  0  0  0  0
   12.9047   -4.3714   18.6103 H   0  0  0  0  0  0  0  0  0  0  0  0
   12.9112   -2.9650   17.5117 H   0  0  0  0  0  0  0  0  0  0  0  0
   15.6104   -1.3967   16.5879 H   0  0  0  0  0  0  0  0  0  0  0  0
   16.6418   -0.5477   14.3800 H   0  0  0  0  0  0  0  0  0  0  0  0
   17.2552    0.7745   15.3838 H   0  0  0  0  0  0  0  0  0  0  0  0
   15.1791    1.5040   14.2514 H   0  0  0  0  0  0  0  0  0  0  0  0
   14.9184    1.4227   15.9901 H   0  0  0  0  0  0  0  0  0  0  0  0
   11.5722   -2.2226   13.6040 H   0  0  0  0  0  0  0  0  0  0  0  0
  1  2  2  0
  2  3  1  0
  3  4  1  0
  4  5  1  0
  5  6  1  0
  6  7  1  0
  7  8  1  0
  8  9  2  0
  2 10  1  0
 10 11  1  0
 11 12  1  0
 12 13  1  0
 13 14  2  0
 14 15  1  0
 15 16  2  0
 16 17  1  0
  8  4  1  0
 17 13  1  0
  3 18  1  0
  3 19  1  0
  5 20  1  0
  5 21  1  0
  6 22  1  0
  6 23  1  0
 10 24  1  0
 11 25  1  0
 11 26  1  0
 12 27  1  0
 12 28  1  0
 16 29  1  0
M  END
>  <Energy>  (388) 
-7.7758804503926582

>  <compound_id>  (388) 
62070

>  <target_id>  (388) 
1

>  <reference_id>  (388) 
98

>  <inspiration_ids>  (388) 
[97, 98]

>  <energy_score>  (388) 
-87.92892733191354

>  <distance_score>  (388) 
2.5981719995131596

>  <path>  (388) 
/opt/xchem-fragalysis-2/maxwin/BulkDock/SCRATCH/511021/C62070-P98/C62070-P98.minimised.mol

>  <scratch_subdir>  (388) 
/opt/xchem-fragalysis-2/maxwin/BulkDock/SCRATCH/511021/C62070-P98

>  <fragmenstein_runtime>  (388) 
2.355273485183716

>  <fragmenstein_outcome>  (388) 
too moved

>  <fragmenstein_mode>  (388) 
expansion

>  <fragmenstein_error>  (388) 


$$$$
C62071-P97
     RDKit          3D

 32 33  0  0  0  0  0  0  0  0999 V2000
   13.3745   -3.9144   17.3806 O   0  0  0  0  0  0  0  0  0  0  0  0
   13.3706   -2.8739   16.7337 C   0  0  0  0  0  0  0  0  0  0  0  0
   14.3296   -1.7400   16.9627 C   0  0  0  0  0  0  0  0  0  0  0  0
   13.6693   -0.5859   16.2278 C   0  0  0  0  0  0  0  0  0  0  0  0
   12.8050   -1.1836   15.1184 C   0  0  0  0  0  0  0  0  0  0  0  0
   13.3836   -1.2291   13.6950 C   0  0  0  0  0  0  0  0  0  0  0  0
   14.7513   -0.5911   13.4897 C   0  0  0  0  0  0  0  0  0  0  0  0
   14.8911    0.5053   13.1214 O   0  0  0  0  0  0  0  0  0  0  0  0
   15.7982   -1.6619   13.8639 N   0  0  0  0  0  0  0  0  0  0  0  0
   17.2322   -1.5760   13.9535 C   0  0  0  0  0  0  0  0  0  0  0  0
   17.9045   -2.9442   13.9795 C   0  0  0  0  0  0  0  0  0  0  0  0
   17.5455   -3.7195   15.2045 C   0  0  0  0  0  0  0  0  0  0  0  0
   16.3119   -3.9332   15.6173 N   0  0  0  0  0  0  0  0  0  0  0  0
   16.2725   -4.6215   16.8056 N   0  0  0  0  0  0  0  0  0  0  0  0
   17.4724   -4.9563   17.2201 C   0  0  0  0  0  0  0  0  0  0  0  0
   18.7500   -4.4143   16.2153 S   0  0  0  0  0  0  0  0  0  0  0  0
   12.3681   -2.5622   15.6516 C   0  0  0  0  0  0  0  0  0  0  0  0
   14.4344   -1.5266   18.0290 H   0  0  0  0  0  0  0  0  0  0  0  0
   15.3040   -1.9641   16.5389 H   0  0  0  0  0  0  0  0  0  0  0  0
   14.3963    0.1574   15.8908 H   0  0  0  0  0  0  0  0  0  0  0  0
   13.0168   -0.0571   16.9294 H   0  0  0  0  0  0  0  0  0  0  0  0
   11.8970   -0.5682   15.0397 H   0  0  0  0  0  0  0  0  0  0  0  0
   13.3893   -2.2415   13.2782 H   0  0  0  0  0  0  0  0  0  0  0  0
   12.7001   -0.6718   13.0434 H   0  0  0  0  0  0  0  0  0  0  0  0
   15.3277   -2.5412   14.0664 H   0  0  0  0  0  0  0  0  0  0  0  0
   17.4645   -0.9995   14.8559 H   0  0  0  0  0  0  0  0  0  0  0  0
   17.5785   -0.9919   13.0946 H   0  0  0  0  0  0  0  0  0  0  0  0
   18.9898   -2.7964   13.9247 H   0  0  0  0  0  0  0  0  0  0  0  0
   17.6207   -3.5161   13.0916 H   0  0  0  0  0  0  0  0  0  0  0  0
   17.6366   -5.5225   18.1262 H   0  0  0  0  0  0  0  0  0  0  0  0
   11.3769   -2.4910   16.1028 H   0  0  0  0  0  0  0  0  0  0  0  0
   12.3557   -3.3372   14.8880 H   0  0  0  0  0  0  0  0  0  0  0  0
  1  2  2  0
  2  3  1  0
  3  4  1  0
  4  5  1  0
  5  6  1  0
  6  7  1  0
  7  8  2  0
  7  9  1  0
  9 10  1  0
 10 11  1  0
 11 12  1  0
 12 13  2  0
 13 14  1  0
 14 15  2  0
 15 16  1  0
  5 17  1  0
 17  2  1  0
 16 12  1  0
  3 18  1  0
  3 19  1  0
  4 20  1  0
  4 21  1  0
  5 22  1  0
  6 23  1  0
  6 24  1  0
  9 25  1  0
 10 26  1  0
 10 27  1  0
 11 28  1  0
 11 29  1  0
 15 30  1  0
 17 31  1  0
 17 32  1  0
M  END
>  <Energy>  (389) 
17.852947447860565

>  <compound_id>  (389) 
62071

>  <target_id>  (389) 
1

>  <reference_id>  (389) 
97

>  <inspiration_ids>  (389) 
[97, 98]

>  <energy_score>  (389) 
-30.816318777132825

>  <distance_score>  (389) 
1.8466796288287346

>  <path>  (389) 
/opt/xchem-fragalysis-2/maxwin/BulkDock/SCRATCH/511021/C62071-P97/C62071-P97.minimised.mol

>  <scratch_subdir>  (389) 
/opt/xchem-fragalysis-2/maxwin/BulkDock/SCRATCH/511021/C62071-P97

>  <fragmenstein_runtime>  (389) 
2.9506099224090576

>  <fragmenstein_outcome>  (389) 
too moved

>  <fragmenstein_mode>  (389) 
expansion

>  <fragmenstein_error>  (389) 


$$$$
C62071-P98
     RDKit          3D

 32 33  0  0  0  0  0  0  0  0999 V2000
   13.7331   -3.6375   18.1232 O   0  0  0  0  0  0  0  0  0  0  0  0
   13.7171   -2.7067   17.3270 C   0  0  0  0  0  0  0  0  0  0  0  0
   14.4117   -1.3909   17.5558 C   0  0  0  0  0  0  0  0  0  0  0  0
   14.1480   -0.6120   16.2740 C   0  0  0  0  0  0  0  0  0  0  0  0
   12.9623   -1.2817   15.5715 C   0  0  0  0  0  0  0  0  0  0  0  0
   12.8541   -1.1076   14.0405 C   0  0  0  0  0  0  0  0  0  0  0  0
   14.0640   -0.4625   13.3611 C   0  0  0  0  0  0  0  0  0  0  0  0
   14.0485    0.6267   12.9453 O   0  0  0  0  0  0  0  0  0  0  0  0
   15.2236   -1.4813   13.4593 N   0  0  0  0  0  0  0  0  0  0  0  0
   16.6230   -1.3371   13.1541 C   0  0  0  0  0  0  0  0  0  0  0  0
   17.4432   -2.6132   13.3268 C   0  0  0  0  0  0  0  0  0  0  0  0
   17.2996   -3.2807   14.6574 C   0  0  0  0  0  0  0  0  0  0  0  0
   16.3905   -3.0017   15.5698 N   0  0  0  0  0  0  0  0  0  0  0  0
   16.5046   -3.7957   16.6856 N   0  0  0  0  0  0  0  0  0  0  0  0
   17.4611   -4.6861   16.5622 C   0  0  0  0  0  0  0  0  0  0  0  0
   18.3426   -4.5819   15.0967 S   0  0  0  0  0  0  0  0  0  0  0  0
   13.0024   -2.7521   16.0091 C   0  0  0  0  0  0  0  0  0  0  0  0
   13.9972   -0.8683   18.4170 H   0  0  0  0  0  0  0  0  0  0  0  0
   15.4814   -1.5396   17.7193 H   0  0  0  0  0  0  0  0  0  0  0  0
   15.0704   -0.6137   15.6945 H   0  0  0  0  0  0  0  0  0  0  0  0
   13.9302    0.4400   16.4911 H   0  0  0  0  0  0  0  0  0  0  0  0
   12.0462   -0.8578   16.0090 H   0  0  0  0  0  0  0  0  0  0  0  0
   12.6297   -2.0570   13.5392 H   0  0  0  0  0  0  0  0  0  0  0  0
   11.9962   -0.4565   13.8250 H   0  0  0  0  0  0  0  0  0  0  0  0
   14.8677   -2.3679   13.7993 H   0  0  0  0  0  0  0  0  0  0  0  0
   17.0039   -0.5468   13.8111 H   0  0  0  0  0  0  0  0  0  0  0  0
   16.7020   -0.9619   12.1283 H   0  0  0  0  0  0  0  0  0  0  0  0
   18.4984   -2.3623   13.1601 H   0  0  0  0  0  0  0  0  0  0  0  0
   17.1641   -3.3091   12.5335 H   0  0  0  0  0  0  0  0  0  0  0  0
   17.6782   -5.4142   17.3306 H   0  0  0  0  0  0  0  0  0  0  0  0
   12.0002   -3.1736   16.1162 H   0  0  0  0  0  0  0  0  0  0  0  0
   13.6036   -3.3581   15.3443 H   0  0  0  0  0  0  0  0  0  0  0  0
  1  2  2  0
  2  3  1  0
  3  4  1  0
  4  5  1  0
  5  6  1  0
  6  7  1  0
  7  8  2  0
  7  9  1  0
  9 10  1  0
 10 11  1  0
 11 12  1  0
 12 13  2  0
 13 14  1  0
 14 15  2  0
 15 16  1  0
  5 17  1  0
 17  2  1  0
 16 12  1  0
  3 18  1  0
  3 19  1  0
  4 20  1  0
  4 21  1  0
  5 22  1  0
  6 23  1  0
  6 24  1  0
  9 25  1  0
 10 26  1  0
 10 27  1  0
 11 28  1  0
 11 29  1  0
 15 30  1  0
 17 31  1  0
 17 32  1  0
M  END
>  <Energy>  (390) 
16.512861681612446

>  <compound_id>  (390) 
62071

>  <target_id>  (390) 
1

>  <reference_id>  (390) 
98

>  <inspiration_ids>  (390) 
[97, 98]

>  <energy_score>  (390) 
-32.156404543379765

>  <distance_score>  (390) 
1.9678535742747894

>  <path>  (390) 
/opt/xchem-fragalysis-2/maxwin/BulkDock/SCRATCH/511021/C62071-P98/C62071-P98.minimised.mol

>  <scratch_subdir>  (390) 
/opt/xchem-fragalysis-2/maxwin/BulkDock/SCRATCH/511021/C62071-P98

>  <fragmenstein_runtime>  (390) 
3.480849266052246

>  <fragmenstein_outcome>  (390) 
too moved

>  <fragmenstein_mode>  (390) 
expansion

>  <fragmenstein_error>  (390) 


$$$$
C35805-P97
     RDKit          3D

 38 39  0  0  0  0  0  0  0  0999 V2000
   14.7345   -3.8295   18.1604 C   0  0  0  0  0  0  0  0  0  0  0  0
   14.2665   -3.6400   16.7196 C   0  0  0  0  0  0  0  0  0  0  0  0
   12.7870   -3.9625   16.6140 C   0  0  0  0  0  0  0  0  0  0  0  0
   14.5732   -2.2849   16.1328 C   0  0  0  0  0  0  0  0  0  0  0  0
   14.8719   -2.0866   14.8631 N   0  0  0  0  0  0  0  0  0  0  0  0
   15.1586   -0.7665   14.5712 N   0  0  0  0  0  0  0  0  0  0  0  0
   15.0722   -0.0020   15.6346 C   0  0  0  0  0  0  0  0  0  0  0  0
   15.4877    1.4277   15.7194 C   0  0  0  0  0  0  0  0  0  0  0  0
   15.1194    2.2716   14.5038 C   0  0  0  0  0  0  0  0  0  0  0  0
   13.7012    2.3488   14.2771 N   0  0  0  0  0  0  0  0  0  0  0  0
   12.5463    2.7492   15.2368 C   0  0  0  0  0  0  0  0  0  0  0  0
   12.5785    3.1511   16.3338 O   0  0  0  0  0  0  0  0  0  0  0  0
   11.2211    2.4154   14.5097 C   0  0  0  0  0  0  0  0  0  0  0  0
   11.0828    0.9668   14.3829 N   0  0  0  0  0  0  0  0  0  0  0  0
   10.9114    0.1575   15.5601 C   0  0  0  0  0  0  0  0  0  0  0  0
   10.8847   -1.2974   15.1690 C   0  0  0  0  0  0  0  0  0  0  0  0
   12.0365   -1.3565   13.7994 S   0  0  0  0  0  0  0  0  0  0  0  0
   11.7791    0.3242   13.3804 C   0  0  0  0  0  0  0  0  0  0  0  0
   12.2569    0.8875   12.4037 O   0  0  0  0  0  0  0  0  0  0  0  0
   14.5278   -0.8310   17.0387 S   0  0  0  0  0  0  0  0  0  0  0  0
   14.1910   -3.1884   18.8620 H   0  0  0  0  0  0  0  0  0  0  0  0
   14.5849   -4.8644   18.4850 H   0  0  0  0  0  0  0  0  0  0  0  0
   15.8023   -3.6040   18.2584 H   0  0  0  0  0  0  0  0  0  0  0  0
   14.8181   -4.3737   16.1191 H   0  0  0  0  0  0  0  0  0  0  0  0
   12.4072   -3.8072   15.6039 H   0  0  0  0  0  0  0  0  0  0  0  0
   12.5924   -5.0003   16.8898 H   0  0  0  0  0  0  0  0  0  0  0  0
   12.2237   -3.3238   17.2877 H   0  0  0  0  0  0  0  0  0  0  0  0
   15.0627    1.8934   16.6174 H   0  0  0  0  0  0  0  0  0  0  0  0
   16.5776    1.4562   15.8434 H   0  0  0  0  0  0  0  0  0  0  0  0
   15.5762    1.8741   13.5915 H   0  0  0  0  0  0  0  0  0  0  0  0
   15.4770    3.2961   14.6490 H   0  0  0  0  0  0  0  0  0  0  0  0
   13.3169    2.1165   13.3575 H   0  0  0  0  0  0  0  0  0  0  0  0
   10.3781    2.8000   15.0926 H   0  0  0  0  0  0  0  0  0  0  0  0
   11.2109    2.8940   13.5250 H   0  0  0  0  0  0  0  0  0  0  0  0
    9.9977    0.4576   16.0823 H   0  0  0  0  0  0  0  0  0  0  0  0
   11.7720    0.3451   16.2066 H   0  0  0  0  0  0  0  0  0  0  0  0
    9.8781   -1.6028   14.8825 H   0  0  0  0  0  0  0  0  0  0  0  0
   11.1989   -1.9285   15.9921 H   0  0  0  0  0  0  0  0  0  0  0  0
  1  2  1  0
  2  3  1  0
  2  4  1  0
  4  5  2  0
  5  6  1  0
  6  7  2  0
  7  8  1  0
  8  9  1  0
  9 10  1  0
 10 11  1  0
 11 12  2  0
 11 13  1  0
 13 14  1  0
 14 15  1  0
 15 16  1  0
 16 17  1  0
 17 18  1  0
 18 19  2  0
  7 20  1  0
 20  4  1  0
 18 14  1  0
  1 21  1  0
  1 22  1  0
  1 23  1  0
  2 24  1  0
  3 25  1  0
  3 26  1  0
  3 27  1  0
  8 28  1  0
  8 29  1  0
  9 30  1  0
  9 31  1  0
 10 32  1  0
 13 33  1  0
 13 34  1  0
 15 35  1  0
 15 36  1  0
 16 37  1  0
 16 38  1  0
M  END
>  <Energy>  (391) 
3.7948272027338121

>  <compound_id>  (391) 
35805

>  <target_id>  (391) 
1

>  <reference_id>  (391) 
97

>  <inspiration_ids>  (391) 
[97, 98]

>  <energy_score>  (391) 
-73.79481601640711

>  <distance_score>  (391) 
3.354289523441086

>  <path>  (391) 
/opt/xchem-fragalysis-2/maxwin/BulkDock/SCRATCH/511021/C35805-P97/C35805-P97.minimised.mol

>  <scratch_subdir>  (391) 
/opt/xchem-fragalysis-2/maxwin/BulkDock/SCRATCH/511021/C35805-P97

>  <fragmenstein_runtime>  (391) 
2.382477283477783

>  <fragmenstein_outcome>  (391) 
too moved

>  <fragmenstein_mode>  (391) 
expansion

>  <fragmenstein_error>  (391) 


$$$$
C35805-P98
     RDKit          3D

 38 39  0  0  0  0  0  0  0  0999 V2000
   14.6990   -3.8447   18.1885 C   0  0  0  0  0  0  0  0  0  0  0  0
   14.2718   -3.6222   16.7402 C   0  0  0  0  0  0  0  0  0  0  0  0
   12.8046   -3.9766   16.5853 C   0  0  0  0  0  0  0  0  0  0  0  0
   14.5607   -2.2467   16.1985 C   0  0  0  0  0  0  0  0  0  0  0  0
   14.8544   -2.0047   14.9357 N   0  0  0  0  0  0  0  0  0  0  0  0
   15.0978   -0.6695   14.6802 N   0  0  0  0  0  0  0  0  0  0  0  0
   14.9951    0.0606   15.7660 C   0  0  0  0  0  0  0  0  0  0  0  0
   15.3448    1.5044   15.8955 C   0  0  0  0  0  0  0  0  0  0  0  0
   15.0494    2.3449   14.6600 C   0  0  0  0  0  0  0  0  0  0  0  0
   13.6740    2.2668   14.2559 N   0  0  0  0  0  0  0  0  0  0  0  0
   12.3714    2.5887   15.0412 C   0  0  0  0  0  0  0  0  0  0  0  0
   12.2231    3.0396   16.1094 O   0  0  0  0  0  0  0  0  0  0  0  0
   11.2000    2.0982   14.1659 C   0  0  0  0  0  0  0  0  0  0  0  0
   11.2654    0.6476   14.0974 N   0  0  0  0  0  0  0  0  0  0  0  0
   10.4676   -0.1939   14.9535 C   0  0  0  0  0  0  0  0  0  0  0  0
   11.1161   -1.5571   15.0173 C   0  0  0  0  0  0  0  0  0  0  0  0
   12.1154   -1.7090   13.5264 S   0  0  0  0  0  0  0  0  0  0  0  0
   12.0743    0.0020   13.1960 C   0  0  0  0  0  0  0  0  0  0  0  0
   12.7212    0.5615   12.3201 O   0  0  0  0  0  0  0  0  0  0  0  0
   14.4835   -0.8226   17.1474 S   0  0  0  0  0  0  0  0  0  0  0  0
   14.5689   -4.8949   18.4723 H   0  0  0  0  0  0  0  0  0  0  0  0
   15.7558   -3.5925   18.3299 H   0  0  0  0  0  0  0  0  0  0  0  0
   14.1120   -3.2428   18.8907 H   0  0  0  0  0  0  0  0  0  0  0  0
   14.8550   -4.3260   16.1326 H   0  0  0  0  0  0  0  0  0  0  0  0
   12.4620   -3.8406   15.5616 H   0  0  0  0  0  0  0  0  0  0  0  0
   12.6413   -5.0195   16.8472 H   0  0  0  0  0  0  0  0  0  0  0  0
   12.1886   -3.3571   17.2327 H   0  0  0  0  0  0  0  0  0  0  0  0
   14.8109    1.9411   16.7494 H   0  0  0  0  0  0  0  0  0  0  0  0
   16.4146    1.5827   16.1252 H   0  0  0  0  0  0  0  0  0  0  0  0
   15.6589    2.0226   13.8093 H   0  0  0  0  0  0  0  0  0  0  0  0
   15.2724    3.3964   14.8669 H   0  0  0  0  0  0  0  0  0  0  0  0
   13.4356    1.9562   13.3101 H   0  0  0  0  0  0  0  0  0  0  0  0
   10.2489    2.4088   14.6083 H   0  0  0  0  0  0  0  0  0  0  0  0
   11.2852    2.5354   13.1656 H   0  0  0  0  0  0  0  0  0  0  0  0
    9.4525   -0.2337   14.5465 H   0  0  0  0  0  0  0  0  0  0  0  0
   10.4049    0.2514   15.9522 H   0  0  0  0  0  0  0  0  0  0  0  0
   11.7718   -1.5831   15.8857 H   0  0  0  0  0  0  0  0  0  0  0  0
   10.3853   -2.3634   15.1044 H   0  0  0  0  0  0  0  0  0  0  0  0
  1  2  1  0
  2  3  1  0
  2  4  1  0
  4  5  2  0
  5  6  1  0
  6  7  2  0
  7  8  1  0
  8  9  1  0
  9 10  1  0
 10 11  1  0
 11 12  2  0
 11 13  1  0
 13 14  1  0
 14 15  1  0
 15 16  1  0
 16 17  1  0
 17 18  1  0
 18 19  2  0
  7 20  1  0
 20  4  1  0
 18 14  1  0
  1 21  1  0
  1 22  1  0
  1 23  1  0
  2 24  1  0
  3 25  1  0
  3 26  1  0
  3 27  1  0
  8 28  1  0
  8 29  1  0
  9 30  1  0
  9 31  1  0
 10 32  1  0
 13 33  1  0
 13 34  1  0
 15 35  1  0
 15 36  1  0
 16 37  1  0
 16 38  1  0
M  END
>  <Energy>  (392) 
5.2683173072449954

>  <compound_id>  (392) 
35805

>  <target_id>  (392) 
1

>  <reference_id>  (392) 
98

>  <inspiration_ids>  (392) 
[97, 98]

>  <energy_score>  (392) 
-72.3213259118952

>  <distance_score>  (392) 
3.365640642614772

>  <path>  (392) 
/opt/xchem-fragalysis-2/maxwin/BulkDock/SCRATCH/511021/C35805-P98/C35805-P98.minimised.mol

>  <scratch_subdir>  (392) 
/opt/xchem-fragalysis-2/maxwin/BulkDock/SCRATCH/511021/C35805-P98

>  <fragmenstein_runtime>  (392) 
2.5007712841033936

>  <fragmenstein_outcome>  (392) 
too moved

>  <fragmenstein_mode>  (392) 
expansion

>  <fragmenstein_error>  (392) 


$$$$
C62072-P97
     RDKit          3D

 33 34  0  0  0  0  0  0  0  0999 V2000
   18.3175   -3.4444   13.9912 O   0  0  0  0  0  0  0  0  0  0  0  0
   17.4752   -3.2335   14.7710 C   0  0  0  0  0  0  0  0  0  0  0  0
   16.8356   -4.3426   15.6425 C   0  0  0  0  0  0  0  0  0  0  0  0
   16.3785   -3.8860   16.9547 N   0  0  0  0  0  0  0  0  0  0  0  0
   17.3868   -3.5004   17.9007 C   0  0  0  0  0  0  0  0  0  0  0  0
   16.5203   -2.9269   19.3460 S   0  0  0  0  0  0  0  0  0  0  0  0
   15.0107   -3.8236   18.9376 C   0  0  0  0  0  0  0  0  0  0  0  0
   15.1336   -4.2084   17.4801 C   0  0  0  0  0  0  0  0  0  0  0  0
   14.2232   -4.7441   16.8609 O   0  0  0  0  0  0  0  0  0  0  0  0
   16.7146   -1.9227   15.0983 N   0  0  0  0  0  0  0  0  0  0  0  0
   16.7685   -0.6220   14.4657 C   0  0  0  0  0  0  0  0  0  0  0  0
   15.6671    0.3335   14.9378 C   0  0  0  0  0  0  0  0  0  0  0  0
   14.3218   -0.2667   14.7098 C   0  0  0  0  0  0  0  0  0  0  0  0
   13.6587   -0.2334   13.5762 N   0  0  0  0  0  0  0  0  0  0  0  0
   12.5744   -1.0831   13.5965 N   0  0  0  0  0  0  0  0  0  0  0  0
   12.4424   -1.7142   14.7458 C   0  0  0  0  0  0  0  0  0  0  0  0
   11.4302   -2.7762   15.0077 C   0  0  0  0  0  0  0  0  0  0  0  0
   11.7380   -3.4790   16.2099 O   0  0  0  0  0  0  0  0  0  0  0  0
   13.5593   -1.1885   15.9402 S   0  0  0  0  0  0  0  0  0  0  0  0
   15.9966   -4.7612   15.0975 H   0  0  0  0  0  0  0  0  0  0  0  0
   17.5730   -5.1371   15.8012 H   0  0  0  0  0  0  0  0  0  0  0  0
   18.0239   -2.7122   17.4919 H   0  0  0  0  0  0  0  0  0  0  0  0
   17.9974   -4.3737   18.1503 H   0  0  0  0  0  0  0  0  0  0  0  0
   14.1392   -3.1833   19.0826 H   0  0  0  0  0  0  0  0  0  0  0  0
   14.9273   -4.7270   19.5468 H   0  0  0  0  0  0  0  0  0  0  0  0
   16.0999   -2.0761   15.8931 H   0  0  0  0  0  0  0  0  0  0  0  0
   17.7559   -0.1992   14.6779 H   0  0  0  0  0  0  0  0  0  0  0  0
   16.7131   -0.7889   13.3840 H   0  0  0  0  0  0  0  0  0  0  0  0
   15.8091    0.5697   15.9995 H   0  0  0  0  0  0  0  0  0  0  0  0
   15.7446    1.2780   14.3873 H   0  0  0  0  0  0  0  0  0  0  0  0
   11.3856   -3.4857   14.1784 H   0  0  0  0  0  0  0  0  0  0  0  0
   10.4450   -2.3185   15.1273 H   0  0  0  0  0  0  0  0  0  0  0  0
   12.5438   -4.0171   16.0663 H   0  0  0  0  0  0  0  0  0  0  0  0
  1  2  2  0
  2  3  1  0
  3  4  1  0
  4  5  1  0
  5  6  1  0
  6  7  1  0
  7  8  1  0
  8  9  2  0
  2 10  1  0
 10 11  1  0
 11 12  1  0
 12 13  1  0
 13 14  2  0
 14 15  1  0
 15 16  2  0
 16 17  1  0
 17 18  1  0
 16 19  1  0
  8  4  1  0
 19 13  1  0
  3 20  1  0
  3 21  1  0
  5 22  1  0
  5 23  1  0
  7 24  1  0
  7 25  1  0
 10 26  1  0
 11 27  1  0
 11 28  1  0
 12 29  1  0
 12 30  1  0
 17 31  1  0
 17 32  1  0
 18 33  1  0
M  END
>  <Energy>  (393) 
25.686110137547708

>  <compound_id>  (393) 
62072

>  <target_id>  (393) 
1

>  <reference_id>  (393) 
97

>  <inspiration_ids>  (393) 
[97, 98]

>  <energy_score>  (393) 
-90.49102598696052

>  <distance_score>  (393) 
1.5559024965101131

>  <path>  (393) 
/opt/xchem-fragalysis-2/maxwin/BulkDock/SCRATCH/511021/C62072-P97/C62072-P97.minimised.mol

>  <scratch_subdir>  (393) 
/opt/xchem-fragalysis-2/maxwin/BulkDock/SCRATCH/511021/C62072-P97

>  <fragmenstein_runtime>  (393) 
1.6841964721679688

>  <fragmenstein_outcome>  (393) 
too moved

>  <fragmenstein_mode>  (393) 
expansion

>  <fragmenstein_error>  (393) 


$$$$
C62072-P98
     RDKit          3D

 33 34  0  0  0  0  0  0  0  0999 V2000
   17.1023   -2.0007   14.2698 O   0  0  0  0  0  0  0  0  0  0  0  0
   16.4855   -2.1943   15.2403 C   0  0  0  0  0  0  0  0  0  0  0  0
   15.9935   -3.5830   15.6869 C   0  0  0  0  0  0  0  0  0  0  0  0
   16.2588   -3.8490   17.0916 N   0  0  0  0  0  0  0  0  0  0  0  0
   17.6268   -3.7820   17.5218 C   0  0  0  0  0  0  0  0  0  0  0  0
   17.6899   -4.3581   19.2077 S   0  0  0  0  0  0  0  0  0  0  0  0
   15.9985   -4.9770   19.2019 C   0  0  0  0  0  0  0  0  0  0  0  0
   15.4113   -4.6407   17.8515 C   0  0  0  0  0  0  0  0  0  0  0  0
   14.3129   -5.0519   17.4987 O   0  0  0  0  0  0  0  0  0  0  0  0
   15.8998   -1.1980   16.2734 N   0  0  0  0  0  0  0  0  0  0  0  0
   15.8724    0.2418   16.2721 C   0  0  0  0  0  0  0  0  0  0  0  0
   15.0980    0.8084   15.0718 C   0  0  0  0  0  0  0  0  0  0  0  0
   13.9168   -0.0189   14.6619 C   0  0  0  0  0  0  0  0  0  0  0  0
   13.6848   -0.4097   13.4265 N   0  0  0  0  0  0  0  0  0  0  0  0
   12.7161   -1.3871   13.3657 N   0  0  0  0  0  0  0  0  0  0  0  0
   12.2219   -1.6766   14.5517 C   0  0  0  0  0  0  0  0  0  0  0  0
   11.2680   -2.7856   14.8227 C   0  0  0  0  0  0  0  0  0  0  0  0
   11.6861   -3.4867   15.9929 O   0  0  0  0  0  0  0  0  0  0  0  0
   12.7762   -0.6298   15.7948 S   0  0  0  0  0  0  0  0  0  0  0  0
   14.9150   -3.6177   15.5242 H   0  0  0  0  0  0  0  0  0  0  0  0
   16.4807   -4.3588   15.0890 H   0  0  0  0  0  0  0  0  0  0  0  0
   18.0007   -2.7574   17.4529 H   0  0  0  0  0  0  0  0  0  0  0  0
   18.2359   -4.4368   16.8907 H   0  0  0  0  0  0  0  0  0  0  0  0
   15.4132   -4.4934   19.9877 H   0  0  0  0  0  0  0  0  0  0  0  0
   15.9983   -6.0611   19.3405 H   0  0  0  0  0  0  0  0  0  0  0  0
   15.4857   -1.7142   17.0470 H   0  0  0  0  0  0  0  0  0  0  0  0
   15.4069    0.5555   17.2125 H   0  0  0  0  0  0  0  0  0  0  0  0
   16.9038    0.6078   16.2601 H   0  0  0  0  0  0  0  0  0  0  0  0
   14.7863    1.8379   15.2808 H   0  0  0  0  0  0  0  0  0  0  0  0
   15.7825    0.8587   14.2148 H   0  0  0  0  0  0  0  0  0  0  0  0
   11.2669   -3.4831   13.9818 H   0  0  0  0  0  0  0  0  0  0  0  0
   10.2586   -2.3997   14.9822 H   0  0  0  0  0  0  0  0  0  0  0  0
   11.2289   -4.3510   15.9908 H   0  0  0  0  0  0  0  0  0  0  0  0
  1  2  2  0
  2  3  1  0
  3  4  1  0
  4  5  1  0
  5  6  1  0
  6  7  1  0
  7  8  1  0
  8  9  2  0
  2 10  1  0
 10 11  1  0
 11 12  1  0
 12 13  1  0
 13 14  2  0
 14 15  1  0
 15 16  2  0
 16 17  1  0
 17 18  1  0
 16 19  1  0
  8  4  1  0
 19 13  1  0
  3 20  1  0
  3 21  1  0
  5 22  1  0
  5 23  1  0
  7 24  1  0
  7 25  1  0
 10 26  1  0
 11 27  1  0
 11 28  1  0
 12 29  1  0
 12 30  1  0
 17 31  1  0
 17 32  1  0
 18 33  1  0
M  END
>  <Energy>  (394) 
35.088245172883148

>  <compound_id>  (394) 
62072

>  <target_id>  (394) 
1

>  <reference_id>  (394) 
98

>  <inspiration_ids>  (394) 
[97, 98]

>  <energy_score>  (394) 
-81.08889095162618

>  <distance_score>  (394) 
1.6916996842328824

>  <path>  (394) 
/opt/xchem-fragalysis-2/maxwin/BulkDock/SCRATCH/511021/C62072-P98/C62072-P98.minimised.mol

>  <scratch_subdir>  (394) 
/opt/xchem-fragalysis-2/maxwin/BulkDock/SCRATCH/511021/C62072-P98

>  <fragmenstein_runtime>  (394) 
1.416203260421753

>  <fragmenstein_outcome>  (394) 
too moved

>  <fragmenstein_mode>  (394) 
expansion

>  <fragmenstein_error>  (394) 


$$$$
C62074-P97
     RDKit          3D

 37 38  0  0  0  0  0  0  0  0999 V2000
   11.2766   -2.5016   14.7259 C   0  0  0  0  0  0  0  0  0  0  0  0
   12.2848   -1.4893   14.3283 C   0  0  0  0  0  0  0  0  0  0  0  0
   12.9757   -1.5112   13.2115 N   0  0  0  0  0  0  0  0  0  0  0  0
   14.0013   -0.5909   13.2086 N   0  0  0  0  0  0  0  0  0  0  0  0
   14.1012    0.0311   14.3612 C   0  0  0  0  0  0  0  0  0  0  0  0
   15.2542    0.8799   14.7890 C   0  0  0  0  0  0  0  0  0  0  0  0
   16.6250    0.2769   14.4449 C   0  0  0  0  0  0  0  0  0  0  0  0
   16.9974   -0.8931   15.2183 N   0  0  0  0  0  0  0  0  0  0  0  0
   16.7034   -2.3981   14.9737 C   0  0  0  0  0  0  0  0  0  0  0  0
   16.0536   -2.9171   14.1572 O   0  0  0  0  0  0  0  0  0  0  0  0
   17.3620   -3.2237   16.1145 C   0  0  0  0  0  0  0  0  0  0  0  0
   16.4109   -3.4335   17.2038 N   0  0  0  0  0  0  0  0  0  0  0  0
   16.1024   -2.3413   18.0906 C   0  0  0  0  0  0  0  0  0  0  0  0
   14.7509   -1.7403   17.7607 C   0  0  0  0  0  0  0  0  0  0  0  0
   13.8014   -2.7807   17.1704 C   0  0  0  0  0  0  0  0  0  0  0  0
   14.1298   -4.1757   17.6546 C   0  0  0  0  0  0  0  0  0  0  0  0
   15.5111   -4.4922   17.1219 C   0  0  0  0  0  0  0  0  0  0  0  0
   15.7861   -5.5870   16.6541 O   0  0  0  0  0  0  0  0  0  0  0  0
   12.7087   -0.1786   15.3540 S   0  0  0  0  0  0  0  0  0  0  0  0
   11.1251   -3.2130   13.9109 H   0  0  0  0  0  0  0  0  0  0  0  0
   11.6023   -3.0870   15.5865 H   0  0  0  0  0  0  0  0  0  0  0  0
   10.3228   -2.0322   14.9808 H   0  0  0  0  0  0  0  0  0  0  0  0
   15.2114    1.0873   15.8645 H   0  0  0  0  0  0  0  0  0  0  0  0
   15.1630    1.8452   14.2758 H   0  0  0  0  0  0  0  0  0  0  0  0
   16.6648   -0.0076   13.3878 H   0  0  0  0  0  0  0  0  0  0  0  0
   17.4037    1.0258   14.6241 H   0  0  0  0  0  0  0  0  0  0  0  0
   17.6707   -0.7972   15.9682 H   0  0  0  0  0  0  0  0  0  0  0  0
   17.6666   -4.1871   15.6904 H   0  0  0  0  0  0  0  0  0  0  0  0
   18.2595   -2.7330   16.5024 H   0  0  0  0  0  0  0  0  0  0  0  0
   16.0679   -2.7581   19.1055 H   0  0  0  0  0  0  0  0  0  0  0  0
   16.8999   -1.5914   18.0861 H   0  0  0  0  0  0  0  0  0  0  0  0
   14.8843   -0.9154   17.0626 H   0  0  0  0  0  0  0  0  0  0  0  0
   14.3417   -1.2947   18.6718 H   0  0  0  0  0  0  0  0  0  0  0  0
   13.9212   -2.7776   16.0825 H   0  0  0  0  0  0  0  0  0  0  0  0
   12.7639   -2.5350   17.3797 H   0  0  0  0  0  0  0  0  0  0  0  0
   14.1096   -4.2687   18.7442 H   0  0  0  0  0  0  0  0  0  0  0  0
   13.4077   -4.8732   17.2223 H   0  0  0  0  0  0  0  0  0  0  0  0
  1  2  1  0
  2  3  2  0
  3  4  1  0
  4  5  2  0
  5  6  1  0
  6  7  1  0
  7  8  1  0
  8  9  1  0
  9 10  2  0
  9 11  1  0
 11 12  1  0
 12 13  1  0
 13 14  1  0
 14 15  1  0
 15 16  1  0
 16 17  1  0
 17 18  2  0
  5 19  1  0
 19  2  1  0
 17 12  1  0
  1 20  1  0
  1 21  1  0
  1 22  1  0
  6 23  1  0
  6 24  1  0
  7 25  1  0
  7 26  1  0
  8 27  1  0
 11 28  1  0
 11 29  1  0
 13 30  1  0
 13 31  1  0
 14 32  1  0
 14 33  1  0
 15 34  1  0
 15 35  1  0
 16 36  1  0
 16 37  1  0
M  END
>  <Energy>  (395) 
42.445137922159475

>  <compound_id>  (395) 
62074

>  <target_id>  (395) 
1

>  <reference_id>  (395) 
97

>  <inspiration_ids>  (395) 
[97, 98]

>  <energy_score>  (395) 
-46.12782913704427

>  <distance_score>  (395) 
1.6735076827794726

>  <path>  (395) 
/opt/xchem-fragalysis-2/maxwin/BulkDock/SCRATCH/511021/C62074-P97/C62074-P97.minimised.mol

>  <scratch_subdir>  (395) 
/opt/xchem-fragalysis-2/maxwin/BulkDock/SCRATCH/511021/C62074-P97

>  <fragmenstein_runtime>  (395) 
1.291215181350708

>  <fragmenstein_outcome>  (395) 
too moved

>  <fragmenstein_mode>  (395) 
expansion

>  <fragmenstein_error>  (395) 


$$$$
C62074-P98
     RDKit          3D

 37 38  0  0  0  0  0  0  0  0999 V2000
   10.9759   -1.5656   14.9006 C   0  0  0  0  0  0  0  0  0  0  0  0
   12.2250   -1.0475   14.3026 C   0  0  0  0  0  0  0  0  0  0  0  0
   12.9063   -1.6292   13.3437 N   0  0  0  0  0  0  0  0  0  0  0  0
   14.1512   -1.0619   13.1778 N   0  0  0  0  0  0  0  0  0  0  0  0
   14.3850   -0.1063   14.0496 C   0  0  0  0  0  0  0  0  0  0  0  0
   15.7146    0.5254   14.3117 C   0  0  0  0  0  0  0  0  0  0  0  0
   16.8856   -0.4733   14.2800 C   0  0  0  0  0  0  0  0  0  0  0  0
   17.0046   -1.3070   15.4625 N   0  0  0  0  0  0  0  0  0  0  0  0
   17.1032   -2.8573   15.6018 C   0  0  0  0  0  0  0  0  0  0  0  0
   17.0258   -3.6959   14.7922 O   0  0  0  0  0  0  0  0  0  0  0  0
   17.2266   -3.2010   17.1140 C   0  0  0  0  0  0  0  0  0  0  0  0
   15.9128   -3.2804   17.7554 N   0  0  0  0  0  0  0  0  0  0  0  0
   15.1770   -2.0747   18.0260 C   0  0  0  0  0  0  0  0  0  0  0  0
   14.0403   -1.9647   17.0347 C   0  0  0  0  0  0  0  0  0  0  0  0
   13.2484   -3.2587   16.8943 C   0  0  0  0  0  0  0  0  0  0  0  0
   13.7073   -4.3080   17.8826 C   0  0  0  0  0  0  0  0  0  0  0  0
   15.2052   -4.4759   17.7736 C   0  0  0  0  0  0  0  0  0  0  0  0
   15.7110   -5.5884   17.7267 O   0  0  0  0  0  0  0  0  0  0  0  0
   12.9718    0.3812   14.9056 S   0  0  0  0  0  0  0  0  0  0  0  0
   10.7680   -2.5855   14.5665 H   0  0  0  0  0  0  0  0  0  0  0  0
   10.1316   -0.9143   14.6612 H   0  0  0  0  0  0  0  0  0  0  0  0
   11.0512   -1.5793   15.9871 H   0  0  0  0  0  0  0  0  0  0  0  0
   15.7142    1.0523   15.2735 H   0  0  0  0  0  0  0  0  0  0  0  0
   15.8804    1.2774   13.5304 H   0  0  0  0  0  0  0  0  0  0  0  0
   17.8244    0.0881   14.2220 H   0  0  0  0  0  0  0  0  0  0  0  0
   16.8364   -1.1295   13.4047 H   0  0  0  0  0  0  0  0  0  0  0  0
   17.0345   -0.8827   16.3788 H   0  0  0  0  0  0  0  0  0  0  0  0
   17.7388   -4.1662   17.1937 H   0  0  0  0  0  0  0  0  0  0  0  0
   17.8388   -2.4570   17.6335 H   0  0  0  0  0  0  0  0  0  0  0  0
   14.7774   -2.1452   19.0455 H   0  0  0  0  0  0  0  0  0  0  0  0
   15.8291   -1.1977   18.0129 H   0  0  0  0  0  0  0  0  0  0  0  0
   14.4679   -1.7468   16.0600 H   0  0  0  0  0  0  0  0  0  0  0  0
   13.3895   -1.1350   17.3162 H   0  0  0  0  0  0  0  0  0  0  0  0
   13.3709   -3.6393   15.8748 H   0  0  0  0  0  0  0  0  0  0  0  0
   12.1830   -3.0823   17.0228 H   0  0  0  0  0  0  0  0  0  0  0  0
   13.4399   -4.0595   18.9146 H   0  0  0  0  0  0  0  0  0  0  0  0
   13.2367   -5.2518   17.6276 H   0  0  0  0  0  0  0  0  0  0  0  0
  1  2  1  0
  2  3  2  0
  3  4  1  0
  4  5  2  0
  5  6  1  0
  6  7  1  0
  7  8  1  0
  8  9  1  0
  9 10  2  0
  9 11  1  0
 11 12  1  0
 12 13  1  0
 13 14  1  0
 14 15  1  0
 15 16  1  0
 16 17  1  0
 17 18  2  0
  5 19  1  0
 19  2  1  0
 17 12  1  0
  1 20  1  0
  1 21  1  0
  1 22  1  0
  6 23  1  0
  6 24  1  0
  7 25  1  0
  7 26  1  0
  8 27  1  0
 11 28  1  0
 11 29  1  0
 13 30  1  0
 13 31  1  0
 14 32  1  0
 14 33  1  0
 15 34  1  0
 15 35  1  0
 16 36  1  0
 16 37  1  0
M  END
>  <Energy>  (396) 
40.51361488561799

>  <compound_id>  (396) 
62074

>  <target_id>  (396) 
1

>  <reference_id>  (396) 
98

>  <inspiration_ids>  (396) 
[97, 98]

>  <energy_score>  (396) 
-48.05935217358652

>  <distance_score>  (396) 
2.0459459619690894

>  <path>  (396) 
/opt/xchem-fragalysis-2/maxwin/BulkDock/SCRATCH/511021/C62074-P98/C62074-P98.minimised.mol

>  <scratch_subdir>  (396) 
/opt/xchem-fragalysis-2/maxwin/BulkDock/SCRATCH/511021/C62074-P98

>  <fragmenstein_runtime>  (396) 
1.696242332458496

>  <fragmenstein_outcome>  (396) 
too moved

>  <fragmenstein_mode>  (396) 
expansion

>  <fragmenstein_error>  (396) 


$$$$
C62076-P97
     RDKit          3D

 48 50  0  0  0  0  0  0  0  0999 V2000
   18.5146   -3.1979   15.0397 C   0  0  0  0  0  0  0  0  0  0  0  0
   17.0437   -3.4950   14.9093 C   0  0  0  0  0  0  0  0  0  0  0  0
   16.3534   -2.4900   14.1365 N   0  0  0  0  0  0  0  0  0  0  0  0
   16.5177   -0.9470   14.1142 C   0  0  0  0  0  0  0  0  0  0  0  0
   17.2882   -0.2605   14.6597 O   0  0  0  0  0  0  0  0  0  0  0  0
   15.3632   -0.3951   13.2838 C   0  0  0  0  0  0  0  0  0  0  0  0
   14.1922    0.1739   14.1747 C   0  0  0  0  0  0  0  0  0  0  0  0
   14.4032    1.7179   14.2278 C   0  0  0  0  0  0  0  0  0  0  0  0
   13.4220    2.4279   15.0454 N   0  0  0  0  0  0  0  0  0  0  0  0
   14.1966   -0.4329   15.6036 C   0  0  0  0  0  0  0  0  0  0  0  0
   12.8427   -0.5829   16.2622 C   0  0  0  0  0  0  0  0  0  0  0  0
   11.7658   -1.7269   15.4348 S   0  0  0  0  0  0  0  0  0  0  0  0
   12.0158   -3.0698   15.9147 O   0  0  0  0  0  0  0  0  0  0  0  0
   10.4280   -1.1753   15.5625 O   0  0  0  0  0  0  0  0  0  0  0  0
   12.3838   -1.5806   13.7675 C   0  0  0  0  0  0  0  0  0  0  0  0
   12.8448   -0.1527   13.4747 C   0  0  0  0  0  0  0  0  0  0  0  0
   16.3098   -3.6117   16.2339 C   0  0  0  0  0  0  0  0  0  0  0  0
   16.6335   -4.7882   17.2362 C   0  0  0  0  0  0  0  0  0  0  0  0
   15.7639   -3.8629   18.1468 C   0  0  0  0  0  0  0  0  0  0  0  0
   14.4138   -3.7886   17.4372 C   0  0  0  0  0  0  0  0  0  0  0  0
   14.8515   -3.6244   16.0856 O   0  0  0  0  0  0  0  0  0  0  0  0
   16.6201   -2.7182   17.5012 C   0  0  0  0  0  0  0  0  0  0  0  0
   19.0301   -4.0052   15.5705 H   0  0  0  0  0  0  0  0  0  0  0  0
   18.7054   -2.2741   15.5950 H   0  0  0  0  0  0  0  0  0  0  0  0
   18.9825   -3.0922   14.0547 H   0  0  0  0  0  0  0  0  0  0  0  0
   16.9377   -4.4364   14.3732 H   0  0  0  0  0  0  0  0  0  0  0  0
   15.6312   -2.7631   13.4815 H   0  0  0  0  0  0  0  0  0  0  0  0
   14.9932   -1.1634   12.5960 H   0  0  0  0  0  0  0  0  0  0  0  0
   15.7773    0.3795   12.6253 H   0  0  0  0  0  0  0  0  0  0  0  0
   14.3446    2.1237   13.2101 H   0  0  0  0  0  0  0  0  0  0  0  0
   15.4058    1.9534   14.6047 H   0  0  0  0  0  0  0  0  0  0  0  0
   13.6785    2.3301   16.0290 H   0  0  0  0  0  0  0  0  0  0  0  0
   13.5131    3.4297   14.8627 H   0  0  0  0  0  0  0  0  0  0  0  0
   14.6119   -1.4301   15.5697 H   0  0  0  0  0  0  0  0  0  0  0  0
   14.8557    0.1506   16.2582 H   0  0  0  0  0  0  0  0  0  0  0  0
   12.3260    0.3774   16.3030 H   0  0  0  0  0  0  0  0  0  0  0  0
   12.9825   -0.9437   17.2771 H   0  0  0  0  0  0  0  0  0  0  0  0
   11.6003   -1.9112   13.1042 H   0  0  0  0  0  0  0  0  0  0  0  0
   13.2082   -2.2894   13.6608 H   0  0  0  0  0  0  0  0  0  0  0  0
   12.9795   -0.0015   12.4002 H   0  0  0  0  0  0  0  0  0  0  0  0
   12.0552    0.5448   13.7790 H   0  0  0  0  0  0  0  0  0  0  0  0
   17.6806   -4.9199   17.5307 H   0  0  0  0  0  0  0  0  0  0  0  0
   16.2115   -5.7630   16.9847 H   0  0  0  0  0  0  0  0  0  0  0  0
   15.8015   -4.0015   19.2257 H   0  0  0  0  0  0  0  0  0  0  0  0
   13.8373   -2.9261   17.7693 H   0  0  0  0  0  0  0  0  0  0  0  0
   13.8267   -4.7031   17.5368 H   0  0  0  0  0  0  0  0  0  0  0  0
   16.1753   -1.7200   17.5156 H   0  0  0  0  0  0  0  0  0  0  0  0
   17.6633   -2.6505   17.8284 H   0  0  0  0  0  0  0  0  0  0  0  0
  1  2  1  0
  2  3  1  0
  3  4  1  0
  4  5  2  0
  4  6  1  0
  6  7  1  0
  7  8  1  0
  8  9  1  0
  7 10  1  0
 10 11  1  0
 11 12  1  0
 12 13  2  0
 12 14  2  0
 12 15  1  0
 15 16  1  0
  2 17  1  0
 17 18  1  0
 18 19  1  0
 19 20  1  0
 20 21  1  0
 19 22  1  0
 16  7  1  0
 21 17  1  0
 22 17  1  0
  1 23  1  0
  1 24  1  0
  1 25  1  0
  2 26  1  0
  3 27  1  0
  6 28  1  0
  6 29  1  0
  8 30  1  0
  8 31  1  0
  9 32  1  0
  9 33  1  0
 10 34  1  0
 10 35  1  0
 11 36  1  0
 11 37  1  0
 15 38  1  0
 15 39  1  0
 16 40  1  0
 16 41  1  0
 18 42  1  0
 18 43  1  0
 19 44  1  0
 20 45  1  0
 20 46  1  0
 22 47  1  0
 22 48  1  0
M  END
>  <Energy>  (397) 
72.140233171112982

>  <compound_id>  (397) 
62076

>  <target_id>  (397) 
1

>  <reference_id>  (397) 
97

>  <inspiration_ids>  (397) 
[97, 98]

>  <energy_score>  (397) 
-39.781348652330394

>  <distance_score>  (397) 
2.0845886988258866

>  <path>  (397) 
/opt/xchem-fragalysis-2/maxwin/BulkDock/SCRATCH/511021/C62076-P97/C62076-P97.minimised.mol

>  <scratch_subdir>  (397) 
/opt/xchem-fragalysis-2/maxwin/BulkDock/SCRATCH/511021/C62076-P97

>  <fragmenstein_runtime>  (397) 
12.898871421813965

>  <fragmenstein_outcome>  (397) 
too moved

>  <fragmenstein_mode>  (397) 
expansion

>  <fragmenstein_error>  (397) 


$$$$
C62076-P98
     RDKit          3D

 48 50  0  0  0  0  0  0  0  0999 V2000
   18.4398   -3.0722   14.9649 C   0  0  0  0  0  0  0  0  0  0  0  0
   16.9765   -3.4117   14.8478 C   0  0  0  0  0  0  0  0  0  0  0  0
   16.2515   -2.4357   14.0683 N   0  0  0  0  0  0  0  0  0  0  0  0
   16.3608   -0.8879   14.0378 C   0  0  0  0  0  0  0  0  0  0  0  0
   17.1056   -0.1715   14.5804 O   0  0  0  0  0  0  0  0  0  0  0  0
   15.1874   -0.3831   13.2020 C   0  0  0  0  0  0  0  0  0  0  0  0
   13.9890    0.1457   14.0808 C   0  0  0  0  0  0  0  0  0  0  0  0
   14.1291    1.6986   14.1055 C   0  0  0  0  0  0  0  0  0  0  0  0
   13.1235    2.3799   14.9162 N   0  0  0  0  0  0  0  0  0  0  0  0
   14.0195   -0.4327   15.5230 C   0  0  0  0  0  0  0  0  0  0  0  0
   12.6724   -0.6324   16.1852 C   0  0  0  0  0  0  0  0  0  0  0  0
   11.6508   -1.8361   15.3744 S   0  0  0  0  0  0  0  0  0  0  0  0
   11.9644   -3.1555   15.8817 O   0  0  0  0  0  0  0  0  0  0  0  0
   10.2926   -1.3421   15.5077 O   0  0  0  0  0  0  0  0  0  0  0  0
   12.2674   -1.6976   13.7015 C   0  0  0  0  0  0  0  0  0  0  0  0
   12.6582   -0.2563   13.3825 C   0  0  0  0  0  0  0  0  0  0  0  0
   16.2579   -3.5393   16.1800 C   0  0  0  0  0  0  0  0  0  0  0  0
   16.6392   -4.6907   17.1922 C   0  0  0  0  0  0  0  0  0  0  0  0
   15.7364   -3.7952   18.0995 C   0  0  0  0  0  0  0  0  0  0  0  0
   14.3794   -3.7947   17.3978 C   0  0  0  0  0  0  0  0  0  0  0  0
   14.8016   -3.6154   16.0421 O   0  0  0  0  0  0  0  0  0  0  0  0
   16.5377   -2.6207   17.4362 C   0  0  0  0  0  0  0  0  0  0  0  0
   18.9821   -3.8596   15.4987 H   0  0  0  0  0  0  0  0  0  0  0  0
   18.6074   -2.1381   15.5104 H   0  0  0  0  0  0  0  0  0  0  0  0
   18.8971   -2.9619   13.9756 H   0  0  0  0  0  0  0  0  0  0  0  0
   16.8927   -4.3605   14.3196 H   0  0  0  0  0  0  0  0  0  0  0  0
   15.5406   -2.7378   13.4141 H   0  0  0  0  0  0  0  0  0  0  0  0
   14.8514   -1.1673   12.5145 H   0  0  0  0  0  0  0  0  0  0  0  0
   15.5757    0.4032   12.5416 H   0  0  0  0  0  0  0  0  0  0  0  0
   14.0473    2.0827   13.0809 H   0  0  0  0  0  0  0  0  0  0  0  0
   15.1223    1.9851   14.4719 H   0  0  0  0  0  0  0  0  0  0  0  0
   13.3802    2.3016   15.9010 H   0  0  0  0  0  0  0  0  0  0  0  0
   13.1705    3.3817   14.7206 H   0  0  0  0  0  0  0  0  0  0  0  0
   14.4812   -1.4110   15.5108 H   0  0  0  0  0  0  0  0  0  0  0  0
   14.6505    0.1933   16.1661 H   0  0  0  0  0  0  0  0  0  0  0  0
   12.1085    0.3019   16.2179 H   0  0  0  0  0  0  0  0  0  0  0  0
   12.8269   -0.9745   17.2045 H   0  0  0  0  0  0  0  0  0  0  0  0
   11.5223   -2.0941   13.0285 H   0  0  0  0  0  0  0  0  0  0  0  0
   13.1325   -2.3606   13.6237 H   0  0  0  0  0  0  0  0  0  0  0  0
   12.7812   -0.1266   12.3040 H   0  0  0  0  0  0  0  0  0  0  0  0
   11.8368    0.4095   13.6734 H   0  0  0  0  0  0  0  0  0  0  0  0
   17.6928   -4.7738   17.4812 H   0  0  0  0  0  0  0  0  0  0  0  0
   16.2581   -5.6856   16.9544 H   0  0  0  0  0  0  0  0  0  0  0  0
   15.7872   -3.9217   19.1794 H   0  0  0  0  0  0  0  0  0  0  0  0
   13.7589   -2.9619   17.7292 H   0  0  0  0  0  0  0  0  0  0  0  0
   13.8458   -4.7424   17.5048 H   0  0  0  0  0  0  0  0  0  0  0  0
   16.0493   -1.6430   17.4442 H   0  0  0  0  0  0  0  0  0  0  0  0
   17.5793   -2.5040   17.7546 H   0  0  0  0  0  0  0  0  0  0  0  0
  1  2  1  0
  2  3  1  0
  3  4  1  0
  4  5  2  0
  4  6  1  0
  6  7  1  0
  7  8  1  0
  8  9  1  0
  7 10  1  0
 10 11  1  0
 11 12  1  0
 12 13  2  0
 12 14  2  0
 12 15  1  0
 15 16  1  0
  2 17  1  0
 17 18  1  0
 18 19  1  0
 19 20  1  0
 20 21  1  0
 19 22  1  0
 16  7  1  0
 21 17  1  0
 22 17  1  0
  1 23  1  0
  1 24  1  0
  1 25  1  0
  2 26  1  0
  3 27  1  0
  6 28  1  0
  6 29  1  0
  8 30  1  0
  8 31  1  0
  9 32  1  0
  9 33  1  0
 10 34  1  0
 10 35  1  0
 11 36  1  0
 11 37  1  0
 15 38  1  0
 15 39  1  0
 16 40  1  0
 16 41  1  0
 18 42  1  0
 18 43  1  0
 19 44  1  0
 20 45  1  0
 20 46  1  0
 22 47  1  0
 22 48  1  0
M  END
>  <Energy>  (398) 
72.135081147340742

>  <compound_id>  (398) 
62076

>  <target_id>  (398) 
1

>  <reference_id>  (398) 
98

>  <inspiration_ids>  (398) 
[97, 98]

>  <energy_score>  (398) 
-39.7865006761009

>  <distance_score>  (398) 
2.0412006286004316

>  <path>  (398) 
/opt/xchem-fragalysis-2/maxwin/BulkDock/SCRATCH/511021/C62076-P98/C62076-P98.minimised.mol

>  <scratch_subdir>  (398) 
/opt/xchem-fragalysis-2/maxwin/BulkDock/SCRATCH/511021/C62076-P98

>  <fragmenstein_runtime>  (398) 
12.464791774749756

>  <fragmenstein_outcome>  (398) 
too moved

>  <fragmenstein_mode>  (398) 
expansion

>  <fragmenstein_error>  (398) 


$$$$
C62077-P97
     RDKit          3D

 50 51  0  0  0  0  0  0  0  0999 V2000
   15.5669    1.4576   16.5823 C   0  0  0  0  0  0  0  0  0  0  0  0
   14.3449    0.6000   16.9072 C   0  0  0  0  0  0  0  0  0  0  0  0
   14.7501   -0.6203   17.5811 N   0  0  0  0  0  0  0  0  0  0  0  0
   15.3492   -0.8305   18.8689 C   0  0  0  0  0  0  0  0  0  0  0  0
   15.7406   -0.0484   19.6852 O   0  0  0  0  0  0  0  0  0  0  0  0
   15.4511   -2.3512   19.1304 C   0  0  0  0  0  0  0  0  0  0  0  0
   15.7749   -3.0872   17.9054 N   0  0  0  0  0  0  0  0  0  0  0  0
   17.0223   -2.8608   17.2116 C   0  0  0  0  0  0  0  0  0  0  0  0
   16.8997   -3.7616   16.0039 C   0  0  0  0  0  0  0  0  0  0  0  0
   16.1477   -4.9609   16.5559 C   0  0  0  0  0  0  0  0  0  0  0  0
   15.2923   -4.3652   17.6466 C   0  0  0  0  0  0  0  0  0  0  0  0
   14.3789   -4.9427   18.2109 O   0  0  0  0  0  0  0  0  0  0  0  0
   13.4656    0.3024   15.6689 C   0  0  0  0  0  0  0  0  0  0  0  0
   14.2448   -0.3670   14.5030 C   0  0  0  0  0  0  0  0  0  0  0  0
   13.5479   -0.4969   13.1433 N   0  0  0  0  0  0  0  0  0  0  0  0
   13.1773    0.7974   12.6532 C   0  0  0  0  0  0  0  0  0  0  0  0
   12.1616    1.4254   12.7953 O   0  0  0  0  0  0  0  0  0  0  0  0
   14.3121    1.3112   11.7613 C   0  0  0  0  0  0  0  0  0  0  0  0
   14.1009    2.7437   11.2797 C   0  0  0  0  0  0  0  0  0  0  0  0
   13.0448    2.8526   10.1948 C   0  0  0  0  0  0  0  0  0  0  0  0
   12.9273    4.1600    9.8368 F   0  0  0  0  0  0  0  0  0  0  0  0
   12.7421   -1.5380   13.9009 C   0  0  0  0  0  0  0  0  0  0  0  0
   11.7181   -1.0360   14.9268 C   0  0  0  0  0  0  0  0  0  0  0  0
   12.4076   -0.5753   16.0834 O   0  0  0  0  0  0  0  0  0  0  0  0
   15.2833    2.3419   16.0027 H   0  0  0  0  0  0  0  0  0  0  0  0
   16.3247    0.8976   16.0244 H   0  0  0  0  0  0  0  0  0  0  0  0
   16.0475    1.8046   17.5039 H   0  0  0  0  0  0  0  0  0  0  0  0
   13.7360    1.1467   17.6356 H   0  0  0  0  0  0  0  0  0  0  0  0
   14.4653   -1.5198   17.1973 H   0  0  0  0  0  0  0  0  0  0  0  0
   14.5010   -2.7058   19.5409 H   0  0  0  0  0  0  0  0  0  0  0  0
   16.2462   -2.5454   19.8578 H   0  0  0  0  0  0  0  0  0  0  0  0
   17.8467   -3.1723   17.8626 H   0  0  0  0  0  0  0  0  0  0  0  0
   17.1460   -1.8114   16.9335 H   0  0  0  0  0  0  0  0  0  0  0  0
   17.8668   -4.0273   15.5684 H   0  0  0  0  0  0  0  0  0  0  0  0
   16.2985   -3.2736   15.2270 H   0  0  0  0  0  0  0  0  0  0  0  0
   16.8293   -5.6919   17.0015 H   0  0  0  0  0  0  0  0  0  0  0  0
   15.5384   -5.4326   15.7902 H   0  0  0  0  0  0  0  0  0  0  0  0
   13.0170    1.2457   15.3344 H   0  0  0  0  0  0  0  0  0  0  0  0
   14.7825   -1.2836   14.7974 H   0  0  0  0  0  0  0  0  0  0  0  0
   15.0739    0.3147   14.2744 H   0  0  0  0  0  0  0  0  0  0  0  0
   14.4192    0.6328   10.9071 H   0  0  0  0  0  0  0  0  0  0  0  0
   15.2478    1.2813   12.3295 H   0  0  0  0  0  0  0  0  0  0  0  0
   15.0449    3.1331   10.8797 H   0  0  0  0  0  0  0  0  0  0  0  0
   13.8335    3.4007   12.1159 H   0  0  0  0  0  0  0  0  0  0  0  0
   13.3278    2.2864    9.3029 H   0  0  0  0  0  0  0  0  0  0  0  0
   12.0642    2.5141   10.5332 H   0  0  0  0  0  0  0  0  0  0  0  0
   12.1348   -1.9806   13.1036 H   0  0  0  0  0  0  0  0  0  0  0  0
   13.3344   -2.3938   14.2541 H   0  0  0  0  0  0  0  0  0  0  0  0
   11.0603   -1.8543   15.2362 H   0  0  0  0  0  0  0  0  0  0  0  0
   11.0911   -0.2311   14.5301 H   0  0  0  0  0  0  0  0  0  0  0  0
  1  2  1  0
  2  3  1  0
  3  4  1  0
  4  5  2  0
  4  6  1  0
  6  7  1  0
  7  8  1  0
  8  9  1  0
  9 10  1  0
 10 11  1  0
 11 12  2  0
  2 13  1  0
 13 14  1  0
 14 15  1  0
 15 16  1  0
 16 17  2  0
 16 18  1  0
 18 19  1  0
 19 20  1  0
 20 21  1  0
 15 22  1  0
 22 23  1  0
 23 24  1  0
 11  7  1  0
 24 13  1  0
  1 25  1  0
  1 26  1  0
  1 27  1  0
  2 28  1  0
  3 29  1  0
  6 30  1  0
  6 31  1  0
  8 32  1  0
  8 33  1  0
  9 34  1  0
  9 35  1  0
 10 36  1  0
 10 37  1  0
 13 38  1  0
 14 39  1  0
 14 40  1  0
 18 41  1  0
 18 42  1  0
 19 43  1  0
 19 44  1  0
 20 45  1  0
 20 46  1  0
 22 47  1  0
 22 48  1  0
 23 49  1  0
 23 50  1  0
M  END
>  <Energy>  (399) 
112.74141347797404

>  <compound_id>  (399) 
62077

>  <target_id>  (399) 
1

>  <reference_id>  (399) 
97

>  <inspiration_ids>  (399) 
[97, 98]

>  <energy_score>  (399) 
13.262255598686295

>  <distance_score>  (399) 
3.1841091237039665

>  <path>  (399) 
/opt/xchem-fragalysis-2/maxwin/BulkDock/SCRATCH/511021/C62077-P97/C62077-P97.minimised.mol

>  <scratch_subdir>  (399) 
/opt/xchem-fragalysis-2/maxwin/BulkDock/SCRATCH/511021/C62077-P97

>  <fragmenstein_runtime>  (399) 
6.563982009887695

>  <fragmenstein_outcome>  (399) 
too moved

>  <fragmenstein_mode>  (399) 
expansion

>  <fragmenstein_error>  (399) 


$$$$
C62077-P98
     RDKit          3D

 50 51  0  0  0  0  0  0  0  0999 V2000
   16.0624    1.5424   16.3599 C   0  0  0  0  0  0  0  0  0  0  0  0
   15.0169    0.4681   16.6419 C   0  0  0  0  0  0  0  0  0  0  0  0
   15.6215   -0.8096   16.9644 N   0  0  0  0  0  0  0  0  0  0  0  0
   16.7139   -1.5174   16.3543 C   0  0  0  0  0  0  0  0  0  0  0  0
   17.4571   -1.1969   15.4718 O   0  0  0  0  0  0  0  0  0  0  0  0
   16.8790   -2.8937   17.0424 C   0  0  0  0  0  0  0  0  0  0  0  0
   15.5850   -3.4268   17.4611 N   0  0  0  0  0  0  0  0  0  0  0  0
   14.6051   -3.8759   16.5115 C   0  0  0  0  0  0  0  0  0  0  0  0
   13.3380   -3.9433   17.3319 C   0  0  0  0  0  0  0  0  0  0  0  0
   13.8306   -4.2988   18.7302 C   0  0  0  0  0  0  0  0  0  0  0  0
   15.2242   -3.7263   18.7595 C   0  0  0  0  0  0  0  0  0  0  0  0
   15.9143   -3.5750   19.7501 O   0  0  0  0  0  0  0  0  0  0  0  0
   13.9511    0.3420   15.5230 C   0  0  0  0  0  0  0  0  0  0  0  0
   14.5127   -0.1219   14.1523 C   0  0  0  0  0  0  0  0  0  0  0  0
   13.6048    0.0292   12.9190 N   0  0  0  0  0  0  0  0  0  0  0  0
   13.2157    1.3991   12.7568 C   0  0  0  0  0  0  0  0  0  0  0  0
   12.2604    1.9958   13.1800 O   0  0  0  0  0  0  0  0  0  0  0  0
   14.3150    2.1203   11.9668 C   0  0  0  0  0  0  0  0  0  0  0  0
   13.8291    3.3805   11.2542 C   0  0  0  0  0  0  0  0  0  0  0  0
   13.1379    3.0507    9.9450 C   0  0  0  0  0  0  0  0  0  0  0  0
   12.1075    2.1995   10.1775 F   0  0  0  0  0  0  0  0  0  0  0  0
   12.8860   -1.1320   13.5764 C   0  0  0  0  0  0  0  0  0  0  0  0
   12.0742   -0.8484   14.8525 C   0  0  0  0  0  0  0  0  0  0  0  0
   12.9495   -0.6006   15.9500 O   0  0  0  0  0  0  0  0  0  0  0  0
   16.6902    1.3068   15.4963 H   0  0  0  0  0  0  0  0  0  0  0  0
   16.7309    1.6592   17.2203 H   0  0  0  0  0  0  0  0  0  0  0  0
   15.5827    2.5091   16.1750 H   0  0  0  0  0  0  0  0  0  0  0  0
   14.4859    0.7513   17.5602 H   0  0  0  0  0  0  0  0  0  0  0  0
   15.2651   -1.3583   17.7433 H   0  0  0  0  0  0  0  0  0  0  0  0
   17.5366   -2.7712   17.9082 H   0  0  0  0  0  0  0  0  0  0  0  0
   17.3251   -3.6030   16.3383 H   0  0  0  0  0  0  0  0  0  0  0  0
   14.9152   -4.8608   16.1529 H   0  0  0  0  0  0  0  0  0  0  0  0
   14.5167   -3.1772   15.6777 H   0  0  0  0  0  0  0  0  0  0  0  0
   12.8627   -2.9572   17.3533 H   0  0  0  0  0  0  0  0  0  0  0  0
   12.6107   -4.6514   16.9305 H   0  0  0  0  0  0  0  0  0  0  0  0
   13.8968   -5.3770   18.8767 H   0  0  0  0  0  0  0  0  0  0  0  0
   13.2139   -3.8485   19.5101 H   0  0  0  0  0  0  0  0  0  0  0  0
   13.4623    1.3189   15.4243 H   0  0  0  0  0  0  0  0  0  0  0  0
   15.0213   -1.0985   14.1834 H   0  0  0  0  0  0  0  0  0  0  0  0
   15.3427    0.5570   13.9201 H   0  0  0  0  0  0  0  0  0  0  0  0
   14.7842    1.4323   11.2540 H   0  0  0  0  0  0  0  0  0  0  0  0
   15.0794    2.4186   12.6943 H   0  0  0  0  0  0  0  0  0  0  0  0
   13.1458    3.9477   11.8956 H   0  0  0  0  0  0  0  0  0  0  0  0
   14.6870    4.0284   11.0408 H   0  0  0  0  0  0  0  0  0  0  0  0
   13.8244    2.5719    9.2412 H   0  0  0  0  0  0  0  0  0  0  0  0
   12.7338    3.9533    9.4779 H   0  0  0  0  0  0  0  0  0  0  0  0
   12.1206   -1.3720   12.8297 H   0  0  0  0  0  0  0  0  0  0  0  0
   13.4783   -2.0592   13.6142 H   0  0  0  0  0  0  0  0  0  0  0  0
   11.4023    0.0072   14.7261 H   0  0  0  0  0  0  0  0  0  0  0  0
   11.4607   -1.7185   15.1080 H   0  0  0  0  0  0  0  0  0  0  0  0
  1  2  1  0
  2  3  1  0
  3  4  1  0
  4  5  2  0
  4  6  1  0
  6  7  1  0
  7  8  1  0
  8  9  1  0
  9 10  1  0
 10 11  1  0
 11 12  2  0
  2 13  1  0
 13 14  1  0
 14 15  1  0
 15 16  1  0
 16 17  2  0
 16 18  1  0
 18 19  1  0
 19 20  1  0
 20 21  1  0
 15 22  1  0
 22 23  1  0
 23 24  1  0
 11  7  1  0
 24 13  1  0
  1 25  1  0
  1 26  1  0
  1 27  1  0
  2 28  1  0
  3 29  1  0
  6 30  1  0
  6 31  1  0
  8 32  1  0
  8 33  1  0
  9 34  1  0
  9 35  1  0
 10 36  1  0
 10 37  1  0
 13 38  1  0
 14 39  1  0
 14 40  1  0
 18 41  1  0
 18 42  1  0
 19 43  1  0
 19 44  1  0
 20 45  1  0
 20 46  1  0
 22 47  1  0
 22 48  1  0
 23 49  1  0
 23 50  1  0
M  END
>  <Energy>  (400) 
110.82951120275762

>  <compound_id>  (400) 
62077

>  <target_id>  (400) 
1

>  <reference_id>  (400) 
98

>  <inspiration_ids>  (400) 
[97, 98]

>  <energy_score>  (400) 
11.350353323470358

>  <distance_score>  (400) 
2.458355464100976

>  <path>  (400) 
/opt/xchem-fragalysis-2/maxwin/BulkDock/SCRATCH/511021/C62077-P98/C62077-P98.minimised.mol

>  <scratch_subdir>  (400) 
/opt/xchem-fragalysis-2/maxwin/BulkDock/SCRATCH/511021/C62077-P98

>  <fragmenstein_runtime>  (400) 
8.073347806930542

>  <fragmenstein_outcome>  (400) 
too moved

>  <fragmenstein_mode>  (400) 
expansion

>  <fragmenstein_error>  (400) 


$$$$
C62078-P97
     RDKit          3D

 49 50  0  0  0  0  0  0  0  0999 V2000
   18.8166   -2.6477   15.2514 O   0  0  0  0  0  0  0  0  0  0  0  0
   17.6981   -2.8371   14.9679 C   0  0  0  0  0  0  0  0  0  0  0  0
   16.9932   -4.1866   15.2725 C   0  0  0  0  0  0  0  0  0  0  0  0
   16.7481   -4.3640   16.6988 N   0  0  0  0  0  0  0  0  0  0  0  0
   17.8217   -4.4287   17.6511 C   0  0  0  0  0  0  0  0  0  0  0  0
   17.1243   -4.0848   18.9474 C   0  0  0  0  0  0  0  0  0  0  0  0
   15.7377   -4.6826   18.7767 C   0  0  0  0  0  0  0  0  0  0  0  0
   15.5163   -4.5972   17.2946 C   0  0  0  0  0  0  0  0  0  0  0  0
   14.4221   -4.7205   16.7760 O   0  0  0  0  0  0  0  0  0  0  0  0
   16.6368   -1.8774   14.3666 N   0  0  0  0  0  0  0  0  0  0  0  0
   16.7060   -0.4702   14.0811 C   0  0  0  0  0  0  0  0  0  0  0  0
   16.4884    0.3608   15.3459 C   0  0  0  0  0  0  0  0  0  0  0  0
   15.0407    0.4607   15.8530 C   0  0  0  0  0  0  0  0  0  0  0  0
   14.9739    0.9716   17.2862 C   0  0  0  0  0  0  0  0  0  0  0  0
   15.1596   -0.2834   18.1475 C   0  0  0  0  0  0  0  0  0  0  0  0
   14.6753   -1.4229   17.2771 C   0  0  0  0  0  0  0  0  0  0  0  0
   14.3697   -0.8055   16.0183 N   0  0  0  0  0  0  0  0  0  0  0  0
   13.5390   -1.3666   15.0983 C   0  0  0  0  0  0  0  0  0  0  0  0
   13.9359   -2.1208   14.2197 O   0  0  0  0  0  0  0  0  0  0  0  0
   12.1204   -0.8786   15.2127 C   0  0  0  0  0  0  0  0  0  0  0  0
   11.6632   -0.3620   13.8663 C   0  0  0  0  0  0  0  0  0  0  0  0
   12.5181    0.7595   13.3104 C   0  0  0  0  0  0  0  0  0  0  0  0
   11.9545    1.2298   12.1634 F   0  0  0  0  0  0  0  0  0  0  0  0
   17.6327   -5.0033   14.9227 H   0  0  0  0  0  0  0  0  0  0  0  0
   16.0451   -4.2487   14.7538 H   0  0  0  0  0  0  0  0  0  0  0  0
   18.2214   -5.4482   17.6555 H   0  0  0  0  0  0  0  0  0  0  0  0
   18.6215   -3.7192   17.4346 H   0  0  0  0  0  0  0  0  0  0  0  0
   17.6479   -4.4711   19.8264 H   0  0  0  0  0  0  0  0  0  0  0  0
   17.0456   -2.9956   19.0550 H   0  0  0  0  0  0  0  0  0  0  0  0
   14.9824   -4.1112   19.3219 H   0  0  0  0  0  0  0  0  0  0  0  0
   15.7110   -5.7330   19.0818 H   0  0  0  0  0  0  0  0  0  0  0  0
   15.7306   -2.3533   14.3226 H   0  0  0  0  0  0  0  0  0  0  0  0
   17.7097   -0.2727   13.6913 H   0  0  0  0  0  0  0  0  0  0  0  0
   15.9727   -0.2312   13.3061 H   0  0  0  0  0  0  0  0  0  0  0  0
   16.8397    1.3823   15.1506 H   0  0  0  0  0  0  0  0  0  0  0  0
   17.1401   -0.0345   16.1361 H   0  0  0  0  0  0  0  0  0  0  0  0
   14.4753    1.1072   15.1791 H   0  0  0  0  0  0  0  0  0  0  0  0
   15.7125    1.7469   17.5111 H   0  0  0  0  0  0  0  0  0  0  0  0
   13.9797    1.3931   17.4834 H   0  0  0  0  0  0  0  0  0  0  0  0
   14.6125   -0.2173   19.0918 H   0  0  0  0  0  0  0  0  0  0  0  0
   16.2177   -0.4215   18.3990 H   0  0  0  0  0  0  0  0  0  0  0  0
   13.8140   -1.9664   17.6651 H   0  0  0  0  0  0  0  0  0  0  0  0
   15.4955   -2.1135   17.1082 H   0  0  0  0  0  0  0  0  0  0  0  0
   11.4960   -1.7171   15.5390 H   0  0  0  0  0  0  0  0  0  0  0  0
   12.0376   -0.0884   15.9659 H   0  0  0  0  0  0  0  0  0  0  0  0
   11.6827   -1.1928   13.1612 H   0  0  0  0  0  0  0  0  0  0  0  0
   10.6298   -0.0087   13.9437 H   0  0  0  0  0  0  0  0  0  0  0  0
   12.5729    1.5990   14.0087 H   0  0  0  0  0  0  0  0  0  0  0  0
   13.5287    0.4292   13.0595 H   0  0  0  0  0  0  0  0  0  0  0  0
  1  2  2  0
  2  3  1  0
  3  4  1  0
  4  5  1  0
  5  6  1  0
  6  7  1  0
  7  8  1  0
  8  9  2  0
  2 10  1  0
 10 11  1  0
 11 12  1  0
 12 13  1  0
 13 14  1  0
 14 15  1  0
 15 16  1  0
 16 17  1  0
 17 18  1  0
 18 19  2  0
 18 20  1  0
 20 21  1  0
 21 22  1  0
 22 23  1  0
  8  4  1  0
 17 13  1  0
  3 24  1  0
  3 25  1  0
  5 26  1  0
  5 27  1  0
  6 28  1  0
  6 29  1  0
  7 30  1  0
  7 31  1  0
 10 32  1  0
 11 33  1  0
 11 34  1  0
 12 35  1  0
 12 36  1  0
 13 37  1  0
 14 38  1  0
 14 39  1  0
 15 40  1  0
 15 41  1  0
 16 42  1  0
 16 43  1  0
 20 44  1  0
 20 45  1  0
 21 46  1  0
 21 47  1  0
 22 48  1  0
 22 49  1  0
M  END
>  <Energy>  (401) 
22.086986888506051

>  <compound_id>  (401) 
62078

>  <target_id>  (401) 
1

>  <reference_id>  (401) 
97

>  <inspiration_ids>  (401) 
[97, 98]

>  <energy_score>  (401) 
-9.541101531696341

>  <distance_score>  (401) 
2.2909073762262318

>  <path>  (401) 
/opt/xchem-fragalysis-2/maxwin/BulkDock/SCRATCH/511021/C62078-P97/C62078-P97.minimised.mol

>  <scratch_subdir>  (401) 
/opt/xchem-fragalysis-2/maxwin/BulkDock/SCRATCH/511021/C62078-P97

>  <fragmenstein_runtime>  (401) 
4.493364095687866

>  <fragmenstein_outcome>  (401) 
too moved

>  <fragmenstein_mode>  (401) 
expansion

>  <fragmenstein_error>  (401) 


$$$$
C62078-P98
     RDKit          3D

 49 50  0  0  0  0  0  0  0  0999 V2000
   18.8461   -3.8531   14.7347 O   0  0  0  0  0  0  0  0  0  0  0  0
   17.7279   -3.8321   15.0712 C   0  0  0  0  0  0  0  0  0  0  0  0
   17.0158   -5.0453   15.6977 C   0  0  0  0  0  0  0  0  0  0  0  0
   16.5666   -4.7124   17.0432 N   0  0  0  0  0  0  0  0  0  0  0  0
   17.5037   -4.5508   18.1178 C   0  0  0  0  0  0  0  0  0  0  0  0
   16.7020   -3.8139   19.1683 C   0  0  0  0  0  0  0  0  0  0  0  0
   15.2622   -4.2390   18.9167 C   0  0  0  0  0  0  0  0  0  0  0  0
   15.2563   -4.5683   17.4549 C   0  0  0  0  0  0  0  0  0  0  0  0
   14.2549   -4.7190   16.7815 O   0  0  0  0  0  0  0  0  0  0  0  0
   16.7085   -2.6621   15.1007 N   0  0  0  0  0  0  0  0  0  0  0  0
   16.8835   -1.2649   14.8134 C   0  0  0  0  0  0  0  0  0  0  0  0
   15.6220   -0.4126   14.9257 C   0  0  0  0  0  0  0  0  0  0  0  0
   14.6888   -0.7295   16.1084 C   0  0  0  0  0  0  0  0  0  0  0  0
   15.3827   -0.7550   17.4549 C   0  0  0  0  0  0  0  0  0  0  0  0
   15.4608    0.7155   17.8314 C   0  0  0  0  0  0  0  0  0  0  0  0
   14.1881    1.3256   17.2596 C   0  0  0  0  0  0  0  0  0  0  0  0
   13.7148    0.3328   16.3213 N   0  0  0  0  0  0  0  0  0  0  0  0
   12.4980    0.3886   15.7096 C   0  0  0  0  0  0  0  0  0  0  0  0
   11.4920   -0.1242   16.1957 O   0  0  0  0  0  0  0  0  0  0  0  0
   12.4897    1.0248   14.3455 C   0  0  0  0  0  0  0  0  0  0  0  0
   11.7649    0.0822   13.3955 C   0  0  0  0  0  0  0  0  0  0  0  0
   12.5036   -1.2289   13.2237 C   0  0  0  0  0  0  0  0  0  0  0  0
   13.6013   -1.0078   12.4502 F   0  0  0  0  0  0  0  0  0  0  0  0
   17.7068   -5.8919   15.7558 H   0  0  0  0  0  0  0  0  0  0  0  0
   16.1634   -5.3258   15.0873 H   0  0  0  0  0  0  0  0  0  0  0  0
   17.8117   -5.5440   18.4605 H   0  0  0  0  0  0  0  0  0  0  0  0
   18.3812   -3.9801   17.8015 H   0  0  0  0  0  0  0  0  0  0  0  0
   17.0351   -4.0424   20.1851 H   0  0  0  0  0  0  0  0  0  0  0  0
   16.8042   -2.7333   19.0319 H   0  0  0  0  0  0  0  0  0  0  0  0
   14.5533   -3.4417   19.1495 H   0  0  0  0  0  0  0  0  0  0  0  0
   15.0086   -5.1415   19.4816 H   0  0  0  0  0  0  0  0  0  0  0  0
   15.7953   -3.0142   15.3745 H   0  0  0  0  0  0  0  0  0  0  0  0
   17.3117   -1.1843   13.8083 H   0  0  0  0  0  0  0  0  0  0  0  0
   17.6526   -0.8980   15.5020 H   0  0  0  0  0  0  0  0  0  0  0  0
   15.0605   -0.5367   14.0007 H   0  0  0  0  0  0  0  0  0  0  0  0
   15.9216    0.6433   14.9366 H   0  0  0  0  0  0  0  0  0  0  0  0
   14.1614   -1.6714   15.9273 H   0  0  0  0  0  0  0  0  0  0  0  0
   14.7540   -1.2739   18.1882 H   0  0  0  0  0  0  0  0  0  0  0  0
   16.3639   -1.2303   17.4554 H   0  0  0  0  0  0  0  0  0  0  0  0
   16.3386    1.1789   17.3654 H   0  0  0  0  0  0  0  0  0  0  0  0
   15.5444    0.8691   18.9115 H   0  0  0  0  0  0  0  0  0  0  0  0
   13.4302    1.4986   18.0264 H   0  0  0  0  0  0  0  0  0  0  0  0
   14.3767    2.2678   16.7359 H   0  0  0  0  0  0  0  0  0  0  0  0
   11.9514    1.9757   14.4227 H   0  0  0  0  0  0  0  0  0  0  0  0
   13.5007    1.2445   13.9921 H   0  0  0  0  0  0  0  0  0  0  0  0
   10.7563   -0.1034   13.7761 H   0  0  0  0  0  0  0  0  0  0  0  0
   11.6651    0.5808   12.4258 H   0  0  0  0  0  0  0  0  0  0  0  0
   12.8217   -1.6861   14.1604 H   0  0  0  0  0  0  0  0  0  0  0  0
   11.8936   -1.9722   12.7147 H   0  0  0  0  0  0  0  0  0  0  0  0
  1  2  2  0
  2  3  1  0
  3  4  1  0
  4  5  1  0
  5  6  1  0
  6  7  1  0
  7  8  1  0
  8  9  2  0
  2 10  1  0
 10 11  1  0
 11 12  1  0
 12 13  1  0
 13 14  1  0
 14 15  1  0
 15 16  1  0
 16 17  1  0
 17 18  1  0
 18 19  2  0
 18 20  1  0
 20 21  1  0
 21 22  1  0
 22 23  1  0
  8  4  1  0
 17 13  1  0
  3 24  1  0
  3 25  1  0
  5 26  1  0
  5 27  1  0
  6 28  1  0
  6 29  1  0
  7 30  1  0
  7 31  1  0
 10 32  1  0
 11 33  1  0
 11 34  1  0
 12 35  1  0
 12 36  1  0
 13 37  1  0
 14 38  1  0
 14 39  1  0
 15 40  1  0
 15 41  1  0
 16 42  1  0
 16 43  1  0
 20 44  1  0
 20 45  1  0
 21 46  1  0
 21 47  1  0
 22 48  1  0
 22 49  1  0
M  END
>  <Energy>  (402) 
22.959519982685087

>  <compound_id>  (402) 
62078

>  <target_id>  (402) 
1

>  <reference_id>  (402) 
98

>  <inspiration_ids>  (402) 
[97, 98]

>  <energy_score>  (402) 
-8.668568437517251

>  <distance_score>  (402) 
2.7888312209194335

>  <path>  (402) 
/opt/xchem-fragalysis-2/maxwin/BulkDock/SCRATCH/511021/C62078-P98/C62078-P98.minimised.mol

>  <scratch_subdir>  (402) 
/opt/xchem-fragalysis-2/maxwin/BulkDock/SCRATCH/511021/C62078-P98

>  <fragmenstein_runtime>  (402) 
5.927960157394409

>  <fragmenstein_outcome>  (402) 
too moved

>  <fragmenstein_mode>  (402) 
expansion

>  <fragmenstein_error>  (402) 


$$$$
C62079-P97
     RDKit          3D

 44 46  0  0  0  0  0  0  0  0999 V2000
   13.8025   -4.3279   19.5927 C   0  0  0  0  0  0  0  0  0  0  0  0
   14.5485   -3.3300   18.7195 C   0  0  0  0  0  0  0  0  0  0  0  0
   15.8625   -3.7767   18.3468 N   0  0  0  0  0  0  0  0  0  0  0  0
   16.5488   -5.1520   18.5370 C   0  0  0  0  0  0  0  0  0  0  0  0
   16.1270   -6.1560   18.9560 O   0  0  0  0  0  0  0  0  0  0  0  0
   17.9575   -4.9946   17.9432 C   0  0  0  0  0  0  0  0  0  0  0  0
   17.8449   -4.6255   16.5257 N   0  0  0  0  0  0  0  0  0  0  0  0
   17.5656   -5.6920   15.5766 C   0  0  0  0  0  0  0  0  0  0  0  0
   18.7664   -6.0152   14.6931 C   0  0  0  0  0  0  0  0  0  0  0  0
   19.6429   -4.8202   14.3190 C   0  0  0  0  0  0  0  0  0  0  0  0
   18.9029   -3.5983   13.7791 C   0  0  0  0  0  0  0  0  0  0  0  0
   17.7942   -3.0081   14.6506 C   0  0  0  0  0  0  0  0  0  0  0  0
   17.9038   -3.2978   16.1361 C   0  0  0  0  0  0  0  0  0  0  0  0
   17.9815   -2.3852   16.9608 O   0  0  0  0  0  0  0  0  0  0  0  0
   13.8644   -2.8562   17.4378 C   0  0  0  0  0  0  0  0  0  0  0  0
   12.8052   -3.5230   16.8135 C   0  0  0  0  0  0  0  0  0  0  0  0
   12.1966   -3.0022   15.6584 C   0  0  0  0  0  0  0  0  0  0  0  0
   12.6898   -1.8199   15.0760 C   0  0  0  0  0  0  0  0  0  0  0  0
   12.2112   -1.2027   13.9371 N   0  0  0  0  0  0  0  0  0  0  0  0
   12.9111   -0.1213   13.6897 C   0  0  0  0  0  0  0  0  0  0  0  0
   14.1883    0.2183   14.7704 S   0  0  0  0  0  0  0  0  0  0  0  0
   13.7710   -1.1819   15.6789 C   0  0  0  0  0  0  0  0  0  0  0  0
   14.3614   -1.6744   16.8491 C   0  0  0  0  0  0  0  0  0  0  0  0
   13.5731   -5.2476   19.0545 H   0  0  0  0  0  0  0  0  0  0  0  0
   14.3977   -4.5979   20.4722 H   0  0  0  0  0  0  0  0  0  0  0  0
   12.8666   -3.9067   19.9602 H   0  0  0  0  0  0  0  0  0  0  0  0
   14.7106   -2.4409   19.3437 H   0  0  0  0  0  0  0  0  0  0  0  0
   16.5504   -3.0934   18.0312 H   0  0  0  0  0  0  0  0  0  0  0  0
   18.5072   -5.9375   18.0286 H   0  0  0  0  0  0  0  0  0  0  0  0
   18.4991   -4.2279   18.5069 H   0  0  0  0  0  0  0  0  0  0  0  0
   17.2423   -6.5936   16.1097 H   0  0  0  0  0  0  0  0  0  0  0  0
   16.7158   -5.3841   14.9668 H   0  0  0  0  0  0  0  0  0  0  0  0
   19.4027   -6.7396   15.2176 H   0  0  0  0  0  0  0  0  0  0  0  0
   18.4155   -6.5215   13.7863 H   0  0  0  0  0  0  0  0  0  0  0  0
   20.2369   -4.5212   15.1926 H   0  0  0  0  0  0  0  0  0  0  0  0
   20.3737   -5.1477   13.5688 H   0  0  0  0  0  0  0  0  0  0  0  0
   18.4863   -3.8309   12.7915 H   0  0  0  0  0  0  0  0  0  0  0  0
   19.6512   -2.8143   13.6037 H   0  0  0  0  0  0  0  0  0  0  0  0
   17.7846   -1.9186   14.5189 H   0  0  0  0  0  0  0  0  0  0  0  0
   16.8098   -3.3425   14.3049 H   0  0  0  0  0  0  0  0  0  0  0  0
   12.4132   -4.4507   17.2230 H   0  0  0  0  0  0  0  0  0  0  0  0
   11.3563   -3.5125   15.1963 H   0  0  0  0  0  0  0  0  0  0  0  0
   12.6966    0.5216   12.8470 H   0  0  0  0  0  0  0  0  0  0  0  0
   15.2013   -1.1449   17.2946 H   0  0  0  0  0  0  0  0  0  0  0  0
  1  2  1  0
  2  3  1  0
  3  4  1  0
  4  5  2  0
  4  6  1  0
  6  7  1  0
  7  8  1  0
  8  9  1  0
  9 10  1  0
 10 11  1  0
 11 12  1  0
 12 13  1  0
 13 14  2  0
  2 15  1  0
 15 16  2  0
 16 17  1  0
 17 18  2  0
 18 19  1  0
 19 20  2  0
 20 21  1  0
 21 22  1  0
 22 23  2  0
 13  7  1  0
 23 15  1  0
 22 18  1  0
  1 24  1  0
  1 25  1  0
  1 26  1  0
  2 27  1  0
  3 28  1  0
  6 29  1  0
  6 30  1  0
  8 31  1  0
  8 32  1  0
  9 33  1  0
  9 34  1  0
 10 35  1  0
 10 36  1  0
 11 37  1  0
 11 38  1  0
 12 39  1  0
 12 40  1  0
 16 41  1  0
 17 42  1  0
 20 43  1  0
 23 44  1  0
M  END
>  <Energy>  (403) 
35.789645337511772

>  <compound_id>  (403) 
62079

>  <target_id>  (403) 
1

>  <reference_id>  (403) 
97

>  <inspiration_ids>  (403) 
[97, 98]

>  <energy_score>  (403) 
-63.44503302648323

>  <distance_score>  (403) 
3.360257942957675

>  <path>  (403) 
/opt/xchem-fragalysis-2/maxwin/BulkDock/SCRATCH/511021/C62079-P97/C62079-P97.minimised.mol

>  <scratch_subdir>  (403) 
/opt/xchem-fragalysis-2/maxwin/BulkDock/SCRATCH/511021/C62079-P97

>  <fragmenstein_runtime>  (403) 
2.44983172416687

>  <fragmenstein_outcome>  (403) 
too moved

>  <fragmenstein_mode>  (403) 
expansion

>  <fragmenstein_error>  (403) 


$$$$
C62079-P98
     RDKit          3D

 44 46  0  0  0  0  0  0  0  0999 V2000
   13.9119   -3.6012   19.6931 C   0  0  0  0  0  0  0  0  0  0  0  0
   14.2519   -4.0181   18.2695 C   0  0  0  0  0  0  0  0  0  0  0  0
   15.6846   -4.0214   18.1373 N   0  0  0  0  0  0  0  0  0  0  0  0
   16.6986   -5.1793   18.2480 C   0  0  0  0  0  0  0  0  0  0  0  0
   16.5262   -6.3233   18.3871 O   0  0  0  0  0  0  0  0  0  0  0  0
   18.0923   -4.5300   18.2092 C   0  0  0  0  0  0  0  0  0  0  0  0
   18.3104   -3.7276   16.9958 N   0  0  0  0  0  0  0  0  0  0  0  0
   18.8719   -4.4236   15.8426 C   0  0  0  0  0  0  0  0  0  0  0  0
   17.9844   -4.3504   14.6086 C   0  0  0  0  0  0  0  0  0  0  0  0
   18.1167   -3.0416   13.8356 C   0  0  0  0  0  0  0  0  0  0  0  0
   17.6664   -1.8154   14.6191 C   0  0  0  0  0  0  0  0  0  0  0  0
   18.5258   -1.5385   15.8427 C   0  0  0  0  0  0  0  0  0  0  0  0
   18.1078   -2.3628   17.0399 C   0  0  0  0  0  0  0  0  0  0  0  0
   17.5731   -1.8259   18.0129 O   0  0  0  0  0  0  0  0  0  0  0  0
   13.6238   -3.1599   17.1826 C   0  0  0  0  0  0  0  0  0  0  0  0
   12.5208   -3.6367   16.4645 C   0  0  0  0  0  0  0  0  0  0  0  0
   11.9645   -2.9112   15.4005 C   0  0  0  0  0  0  0  0  0  0  0  0
   12.5401   -1.6881   15.0171 C   0  0  0  0  0  0  0  0  0  0  0  0
   12.1439   -0.8947   13.9563 N   0  0  0  0  0  0  0  0  0  0  0  0
   12.9072    0.1686   13.8884 C   0  0  0  0  0  0  0  0  0  0  0  0
   14.1247    0.3032   15.0796 S   0  0  0  0  0  0  0  0  0  0  0  0
   13.6192   -1.2004   15.7525 C   0  0  0  0  0  0  0  0  0  0  0  0
   14.1526   -1.8993   16.8486 C   0  0  0  0  0  0  0  0  0  0  0  0
   14.2131   -2.5672   19.8947 H   0  0  0  0  0  0  0  0  0  0  0  0
   12.8460   -3.6961   19.8903 H   0  0  0  0  0  0  0  0  0  0  0  0
   14.4322   -4.2368   20.4192 H   0  0  0  0  0  0  0  0  0  0  0  0
   13.9314   -5.0564   18.1381 H   0  0  0  0  0  0  0  0  0  0  0  0
   16.1834   -3.1348   18.1050 H   0  0  0  0  0  0  0  0  0  0  0  0
   18.1962   -3.9041   19.1033 H   0  0  0  0  0  0  0  0  0  0  0  0
   18.8595   -5.3093   18.2736 H   0  0  0  0  0  0  0  0  0  0  0  0
   19.0040   -5.4801   16.1035 H   0  0  0  0  0  0  0  0  0  0  0  0
   19.8696   -4.0178   15.6413 H   0  0  0  0  0  0  0  0  0  0  0  0
   18.2794   -5.1629   13.9336 H   0  0  0  0  0  0  0  0  0  0  0  0
   16.9373   -4.5220   14.8845 H   0  0  0  0  0  0  0  0  0  0  0  0
   19.1549   -2.9103   13.5065 H   0  0  0  0  0  0  0  0  0  0  0  0
   17.5114   -3.1096   12.9240 H   0  0  0  0  0  0  0  0  0  0  0  0
   17.7234   -0.9481   13.9502 H   0  0  0  0  0  0  0  0  0  0  0  0
   16.6151   -1.9297   14.9043 H   0  0  0  0  0  0  0  0  0  0  0  0
   18.4059   -0.4850   16.1257 H   0  0  0  0  0  0  0  0  0  0  0  0
   19.5929   -1.6829   15.6435 H   0  0  0  0  0  0  0  0  0  0  0  0
   12.0810   -4.5996   16.7148 H   0  0  0  0  0  0  0  0  0  0  0  0
   11.1189   -3.3024   14.8424 H   0  0  0  0  0  0  0  0  0  0  0  0
   12.7721    0.9232   13.1254 H   0  0  0  0  0  0  0  0  0  0  0  0
   14.9874   -1.4749   17.3988 H   0  0  0  0  0  0  0  0  0  0  0  0
  1  2  1  0
  2  3  1  0
  3  4  1  0
  4  5  2  0
  4  6  1  0
  6  7  1  0
  7  8  1  0
  8  9  1  0
  9 10  1  0
 10 11  1  0
 11 12  1  0
 12 13  1  0
 13 14  2  0
  2 15  1  0
 15 16  2  0
 16 17  1  0
 17 18  2  0
 18 19  1  0
 19 20  2  0
 20 21  1  0
 21 22  1  0
 22 23  2  0
 13  7  1  0
 23 15  1  0
 22 18  1  0
  1 24  1  0
  1 25  1  0
  1 26  1  0
  2 27  1  0
  3 28  1  0
  6 29  1  0
  6 30  1  0
  8 31  1  0
  8 32  1  0
  9 33  1  0
  9 34  1  0
 10 35  1  0
 10 36  1  0
 11 37  1  0
 11 38  1  0
 12 39  1  0
 12 40  1  0
 16 41  1  0
 17 42  1  0
 20 43  1  0
 23 44  1  0
M  END
>  <Energy>  (404) 
27.561666994396649

>  <compound_id>  (404) 
62079

>  <target_id>  (404) 
1

>  <reference_id>  (404) 
98

>  <inspiration_ids>  (404) 
[97, 98]

>  <energy_score>  (404) 
-71.67301136959699

>  <distance_score>  (404) 
2.931621553476934

>  <path>  (404) 
/opt/xchem-fragalysis-2/maxwin/BulkDock/SCRATCH/511021/C62079-P98/C62079-P98.minimised.mol

>  <scratch_subdir>  (404) 
/opt/xchem-fragalysis-2/maxwin/BulkDock/SCRATCH/511021/C62079-P98

>  <fragmenstein_runtime>  (404) 
2.656282901763916

>  <fragmenstein_outcome>  (404) 
too moved

>  <fragmenstein_mode>  (404) 
expansion

>  <fragmenstein_error>  (404) 


$$$$
C62080-P97
     RDKit          3D

 38 40  0  0  0  0  0  0  0  0999 V2000
   14.0027   -4.0911   18.2539 C   0  0  0  0  0  0  0  0  0  0  0  0
   14.8100   -3.8510   17.0003 C   0  0  0  0  0  0  0  0  0  0  0  0
   16.0072   -3.3215   17.2248 N   0  0  0  0  0  0  0  0  0  0  0  0
   17.2686   -3.6744   16.7595 C   0  0  0  0  0  0  0  0  0  0  0  0
   17.6333   -4.6013   16.1096 O   0  0  0  0  0  0  0  0  0  0  0  0
   18.0180   -2.4709   17.2264 C   0  0  0  0  0  0  0  0  0  0  0  0
   16.7270   -1.5422   16.4487 N   0  0  0  0  0  0  0  0  0  0  0  0
   16.0978   -2.1670   14.7666 C   0  0  0  0  0  0  0  0  0  0  0  0
   14.1662   -1.6190   14.4903 C   0  0  0  0  0  0  0  0  0  0  0  0
   13.6959   -0.6605   16.4576 C   0  0  0  0  0  0  0  0  0  0  0  0
   15.4353   -0.8097   17.4539 C   0  0  0  0  0  0  0  0  0  0  0  0
   15.6099   -0.5848   18.6452 O   0  0  0  0  0  0  0  0  0  0  0  0
   14.4176   -2.3111   16.1629 C   0  0  0  0  0  0  0  0  0  0  0  0
   12.7317   -2.5509   15.8592 C   0  0  0  0  0  0  0  0  0  0  0  0
   11.9241   -1.3476   15.0783 C   0  0  0  0  0  0  0  0  0  0  0  0
   12.5300    0.1072   14.5157 C   0  0  0  0  0  0  0  0  0  0  0  0
   11.7880    1.0672   13.8595 N   0  0  0  0  0  0  0  0  0  0  0  0
   12.5569    2.0863   13.5347 C   0  0  0  0  0  0  0  0  0  0  0  0
   14.2289    2.0790   13.9541 S   0  0  0  0  0  0  0  0  0  0  0  0
   14.0441    0.5428   14.6761 C   0  0  0  0  0  0  0  0  0  0  0  0
   15.1736   -0.5420   15.4802 C   0  0  0  0  0  0  0  0  0  0  0  0
   13.9605   -3.2021   18.8901 H   0  0  0  0  0  0  0  0  0  0  0  0
   12.9791   -4.3883   18.0198 H   0  0  0  0  0  0  0  0  0  0  0  0
   14.4532   -4.8927   18.8491 H   0  0  0  0  0  0  0  0  0  0  0  0
   14.7958   -4.6419   16.2491 H   0  0  0  0  0  0  0  0  0  0  0  0
   16.0914   -2.5175   17.8137 H   0  0  0  0  0  0  0  0  0  0  0  0
   18.8969   -2.2278   16.6336 H   0  0  0  0  0  0  0  0  0  0  0  0
   18.0093   -2.2079   18.2825 H   0  0  0  0  0  0  0  0  0  0  0  0
   16.7279   -1.6683   14.0147 H   0  0  0  0  0  0  0  0  0  0  0  0
   16.1563   -3.2552   14.6845 H   0  0  0  0  0  0  0  0  0  0  0  0
   13.6925   -2.5441   14.0910 H   0  0  0  0  0  0  0  0  0  0  0  0
   14.2737   -1.0753   13.5104 H   0  0  0  0  0  0  0  0  0  0  0  0
   12.9976   -1.0979   17.2142 H   0  0  0  0  0  0  0  0  0  0  0  0
   13.4620    0.4291   16.6010 H   0  0  0  0  0  0  0  0  0  0  0  0
   12.2233   -3.4693   16.1339 H   0  0  0  0  0  0  0  0  0  0  0  0
   10.8678   -1.4976   14.8461 H   0  0  0  0  0  0  0  0  0  0  0  0
   12.1527    2.9404   13.0067 H   0  0  0  0  0  0  0  0  0  0  0  0
   16.1540   -0.0263   15.4505 H   0  0  0  0  0  0  0  0  0  0  0  0
  1  2  1  0
  2  3  1  0
  3  4  1  0
  4  5  2  0
  4  6  1  0
  6  7  1  0
  7  8  1  0
  8  9  1  0
  9 10  1  0
 10 11  1  0
 11 12  2  0
  2 13  1  0
 13 14  2  0
 14 15  1  0
 15 16  2  0
 16 17  1  0
 17 18  2  0
 18 19  1  0
 19 20  1  0
 20 21  2  0
 11  7  1  0
 21 13  1  0
 20 16  1  0
  1 22  1  0
  1 23  1  0
  1 24  1  0
  2 25  1  0
  3 26  1  0
  6 27  1  0
  6 28  1  0
  8 29  1  0
  8 30  1  0
  9 31  1  0
  9 32  1  0
 10 33  1  0
 10 34  1  0
 14 35  1  0
 15 36  1  0
 18 37  1  0
 21 38  1  0
M  END
>  <Energy>  (405) 
1460.3328387773538

>  <compound_id>  (405) 
62080

>  <target_id>  (405) 
1

>  <reference_id>  (405) 
97

>  <inspiration_ids>  (405) 
[97, 98]

>  <energy_score>  (405) 
1388.9018790945836

>  <distance_score>  (405) 
2.0186685315919846

>  <path>  (405) 
/opt/xchem-fragalysis-2/maxwin/BulkDock/SCRATCH/511021/C62080-P97/C62080-P97.minimised.mol

>  <scratch_subdir>  (405) 
/opt/xchem-fragalysis-2/maxwin/BulkDock/SCRATCH/511021/C62080-P97

>  <fragmenstein_runtime>  (405) 
3.1794886589050293

>  <fragmenstein_outcome>  (405) 
too moved

>  <fragmenstein_mode>  (405) 
expansion

>  <fragmenstein_error>  (405) 


$$$$
C62080-P98
     RDKit          3D

 38 40  0  0  0  0  0  0  0  0999 V2000
   13.8083   -4.1381   18.1927 C   0  0  0  0  0  0  0  0  0  0  0  0
   14.6622   -3.8805   16.9755 C   0  0  0  0  0  0  0  0  0  0  0  0
   15.8474   -3.3478   17.2487 N   0  0  0  0  0  0  0  0  0  0  0  0
   17.1272   -3.6939   16.8316 C   0  0  0  0  0  0  0  0  0  0  0  0
   17.5205   -4.6166   16.1925 O   0  0  0  0  0  0  0  0  0  0  0  0
   17.8532   -2.4896   17.3325 C   0  0  0  0  0  0  0  0  0  0  0  0
   16.5890   -1.5618   16.5100 N   0  0  0  0  0  0  0  0  0  0  0  0
   16.0238   -2.1817   14.8033 C   0  0  0  0  0  0  0  0  0  0  0  0
   14.1011   -1.6395   14.4590 C   0  0  0  0  0  0  0  0  0  0  0  0
   13.5575   -0.6879   16.4108 C   0  0  0  0  0  0  0  0  0  0  0  0
   15.2594   -0.8369   17.4696 C   0  0  0  0  0  0  0  0  0  0  0  0
   15.3899   -0.6149   18.6669 O   0  0  0  0  0  0  0  0  0  0  0  0
   14.2939   -2.3360   16.1371 C   0  0  0  0  0  0  0  0  0  0  0  0
   12.6206   -2.5788   15.7732 C   0  0  0  0  0  0  0  0  0  0  0  0
   11.8386   -1.3747   14.9686 C   0  0  0  0  0  0  0  0  0  0  0  0
   12.4605    0.0834   14.4317 C   0  0  0  0  0  0  0  0  0  0  0  0
   11.7390    1.0443   13.7541 N   0  0  0  0  0  0  0  0  0  0  0  0
   12.5166    2.0659   13.4591 C   0  0  0  0  0  0  0  0  0  0  0  0
   14.1734    2.0605   13.9358 S   0  0  0  0  0  0  0  0  0  0  0  0
   13.9669    0.5218   14.6467 C   0  0  0  0  0  0  0  0  0  0  0  0
   15.0693   -0.5627   15.4878 C   0  0  0  0  0  0  0  0  0  0  0  0
   13.7230   -3.2533   18.8308 H   0  0  0  0  0  0  0  0  0  0  0  0
   12.8016   -4.4470   17.9093 H   0  0  0  0  0  0  0  0  0  0  0  0
   14.2419   -4.9395   18.8004 H   0  0  0  0  0  0  0  0  0  0  0  0
   14.6806   -4.6644   16.2171 H   0  0  0  0  0  0  0  0  0  0  0  0
   15.9055   -2.5460   17.8439 H   0  0  0  0  0  0  0  0  0  0  0  0
   18.7532   -2.2402   16.7749 H   0  0  0  0  0  0  0  0  0  0  0  0
   17.8028   -2.2317   18.3887 H   0  0  0  0  0  0  0  0  0  0  0  0
   16.0909   -3.2691   14.7186 H   0  0  0  0  0  0  0  0  0  0  0  0
   16.6790   -1.6773   14.0769 H   0  0  0  0  0  0  0  0  0  0  0  0
   13.6459   -2.5671   14.0425 H   0  0  0  0  0  0  0  0  0  0  0  0
   14.2402   -1.0931   13.4847 H   0  0  0  0  0  0  0  0  0  0  0  0
   12.8279   -1.1258   17.1371 H   0  0  0  0  0  0  0  0  0  0  0  0
   13.3194    0.4015   16.5490 H   0  0  0  0  0  0  0  0  0  0  0  0
   12.1055   -3.4998   16.0255 H   0  0  0  0  0  0  0  0  0  0  0  0
   10.7911   -1.5252   14.7012 H   0  0  0  0  0  0  0  0  0  0  0  0
   12.1293    2.9211   12.9202 H   0  0  0  0  0  0  0  0  0  0  0  0
   16.0492   -0.0449   15.4944 H   0  0  0  0  0  0  0  0  0  0  0  0
  1  2  1  0
  2  3  1  0
  3  4  1  0
  4  5  2  0
  4  6  1  0
  6  7  1  0
  7  8  1  0
  8  9  1  0
  9 10  1  0
 10 11  1  0
 11 12  2  0
  2 13  1  0
 13 14  2  0
 14 15  1  0
 15 16  2  0
 16 17  1  0
 17 18  2  0
 18 19  1  0
 19 20  1  0
 20 21  2  0
 11  7  1  0
 21 13  1  0
 20 16  1  0
  1 22  1  0
  1 23  1  0
  1 24  1  0
  2 25  1  0
  3 26  1  0
  6 27  1  0
  6 28  1  0
  8 29  1  0
  8 30  1  0
  9 31  1  0
  9 32  1  0
 10 33  1  0
 10 34  1  0
 14 35  1  0
 15 36  1  0
 18 37  1  0
 21 38  1  0
M  END
>  <Energy>  (406) 
1460.2902676985539

>  <compound_id>  (406) 
62080

>  <target_id>  (406) 
1

>  <reference_id>  (406) 
98

>  <inspiration_ids>  (406) 
[97, 98]

>  <energy_score>  (406) 
1388.8593080157755

>  <distance_score>  (406) 
1.9761113320693546

>  <path>  (406) 
/opt/xchem-fragalysis-2/maxwin/BulkDock/SCRATCH/511021/C62080-P98/C62080-P98.minimised.mol

>  <scratch_subdir>  (406) 
/opt/xchem-fragalysis-2/maxwin/BulkDock/SCRATCH/511021/C62080-P98

>  <fragmenstein_runtime>  (406) 
3.215134620666504

>  <fragmenstein_outcome>  (406) 
too moved

>  <fragmenstein_mode>  (406) 
expansion

>  <fragmenstein_error>  (406) 


$$$$
C62082-P97
     RDKit          3D

 41 42  0  0  0  0  0  0  0  0999 V2000
   17.8288   -0.0441   16.4104 O   0  0  0  0  0  0  0  0  0  0  0  0
   16.7114   -0.1766   16.0934 C   0  0  0  0  0  0  0  0  0  0  0  0
   15.5567   -0.0569   17.0897 C   0  0  0  0  0  0  0  0  0  0  0  0
   14.8616   -1.3721   17.1981 C   0  0  0  0  0  0  0  0  0  0  0  0
   15.4213   -2.5729   17.5812 C   0  0  0  0  0  0  0  0  0  0  0  0
   14.3360   -3.8593   17.2802 S   0  0  0  0  0  0  0  0  0  0  0  0
   13.2173   -2.7341   16.6577 C   0  0  0  0  0  0  0  0  0  0  0  0
   12.0013   -3.1749   15.9238 C   0  0  0  0  0  0  0  0  0  0  0  0
   11.2260   -1.9941   15.3431 C   0  0  0  0  0  0  0  0  0  0  0  0
   11.9440   -1.4375   14.1369 C   0  0  0  0  0  0  0  0  0  0  0  0
   13.1990   -1.0194   14.3910 F   0  0  0  0  0  0  0  0  0  0  0  0
   11.3010   -0.3620   13.6302 F   0  0  0  0  0  0  0  0  0  0  0  0
   12.0390   -2.3866   13.1837 F   0  0  0  0  0  0  0  0  0  0  0  0
   13.5473   -1.4721   16.8073 N   0  0  0  0  0  0  0  0  0  0  0  0
   16.0927   -0.5649   14.7197 N   0  0  0  0  0  0  0  0  0  0  0  0
   16.7275   -0.9612   13.4835 C   0  0  0  0  0  0  0  0  0  0  0  0
   17.0803   -2.4604   13.4866 C   0  0  0  0  0  0  0  0  0  0  0  0
   18.1781   -2.7963   14.3787 N   0  0  0  0  0  0  0  0  0  0  0  0
   18.1811   -4.0097   15.1497 C   0  0  0  0  0  0  0  0  0  0  0  0
   19.4398   -3.8754   15.9808 C   0  0  0  0  0  0  0  0  0  0  0  0
   20.4011   -3.1484   15.0478 C   0  0  0  0  0  0  0  0  0  0  0  0
   19.4813   -2.3662   14.1400 C   0  0  0  0  0  0  0  0  0  0  0  0
   19.8427   -1.5615   13.2965 O   0  0  0  0  0  0  0  0  0  0  0  0
   15.9555    0.2422   18.0651 H   0  0  0  0  0  0  0  0  0  0  0  0
   14.8758    0.7312   16.7505 H   0  0  0  0  0  0  0  0  0  0  0  0
   16.4207   -2.7575   17.9514 H   0  0  0  0  0  0  0  0  0  0  0  0
   11.3733   -3.7875   16.5667 H   0  0  0  0  0  0  0  0  0  0  0  0
   12.3019   -3.8095   15.0978 H   0  0  0  0  0  0  0  0  0  0  0  0
   10.2365   -2.3392   15.0306 H   0  0  0  0  0  0  0  0  0  0  0  0
   11.0756   -1.1940   16.0720 H   0  0  0  0  0  0  0  0  0  0  0  0
   15.0831   -0.6707   14.8180 H   0  0  0  0  0  0  0  0  0  0  0  0
   16.0163   -0.7494   12.6793 H   0  0  0  0  0  0  0  0  0  0  0  0
   17.6131   -0.3354   13.3483 H   0  0  0  0  0  0  0  0  0  0  0  0
   16.2006   -3.0353   13.7936 H   0  0  0  0  0  0  0  0  0  0  0  0
   17.3697   -2.7695   12.4762 H   0  0  0  0  0  0  0  0  0  0  0  0
   18.2417   -4.8627   14.4649 H   0  0  0  0  0  0  0  0  0  0  0  0
   17.2805   -4.0865   15.7613 H   0  0  0  0  0  0  0  0  0  0  0  0
   19.8271   -4.8371   16.3281 H   0  0  0  0  0  0  0  0  0  0  0  0
   19.2422   -3.2511   16.8612 H   0  0  0  0  0  0  0  0  0  0  0  0
   21.0724   -2.4819   15.5942 H   0  0  0  0  0  0  0  0  0  0  0  0
   20.9760   -3.8551   14.4415 H   0  0  0  0  0  0  0  0  0  0  0  0
  1  2  2  0
  2  3  1  0
  3  4  1  0
  4  5  2  0
  5  6  1  0
  6  7  1  0
  7  8  1  0
  8  9  1  0
  9 10  1  0
 10 11  1  0
 10 12  1  0
 10 13  1  0
  7 14  2  0
  2 15  1  0
 15 16  1  0
 16 17  1  0
 17 18  1  0
 18 19  1  0
 19 20  1  0
 20 21  1  0
 21 22  1  0
 22 23  2  0
 14  4  1  0
 22 18  1  0
  3 24  1  0
  3 25  1  0
  5 26  1  0
  8 27  1  0
  8 28  1  0
  9 29  1  0
  9 30  1  0
 15 31  1  0
 16 32  1  0
 16 33  1  0
 17 34  1  0
 17 35  1  0
 19 36  1  0
 19 37  1  0
 20 38  1  0
 20 39  1  0
 21 40  1  0
 21 41  1  0
M  END
>  <Energy>  (407) 
2.4976940746291669

>  <compound_id>  (407) 
62082

>  <target_id>  (407) 
1

>  <reference_id>  (407) 
97

>  <inspiration_ids>  (407) 
[97, 98]

>  <energy_score>  (407) 
-31.32925562992955

>  <distance_score>  (407) 
2.206939145308179

>  <path>  (407) 
/opt/xchem-fragalysis-2/maxwin/BulkDock/SCRATCH/511021/C62082-P97/C62082-P97.minimised.mol

>  <scratch_subdir>  (407) 
/opt/xchem-fragalysis-2/maxwin/BulkDock/SCRATCH/511021/C62082-P97

>  <fragmenstein_runtime>  (407) 
3.932981014251709

>  <fragmenstein_outcome>  (407) 
too moved

>  <fragmenstein_mode>  (407) 
expansion

>  <fragmenstein_error>  (407) 


$$$$
C62082-P98
     RDKit          3D

 41 42  0  0  0  0  0  0  0  0999 V2000
   17.8198    0.1584   16.5331 O   0  0  0  0  0  0  0  0  0  0  0  0
   16.7485   -0.0715   16.1271 C   0  0  0  0  0  0  0  0  0  0  0  0
   15.5079   -0.0156   17.0211 C   0  0  0  0  0  0  0  0  0  0  0  0
   14.8592   -1.3573   17.0820 C   0  0  0  0  0  0  0  0  0  0  0  0
   15.4700   -2.5611   17.3696 C   0  0  0  0  0  0  0  0  0  0  0  0
   14.3932   -3.8582   17.0902 S   0  0  0  0  0  0  0  0  0  0  0  0
   13.2155   -2.7337   16.5833 C   0  0  0  0  0  0  0  0  0  0  0  0
   11.9790   -3.1745   15.8840 C   0  0  0  0  0  0  0  0  0  0  0  0
   11.2088   -1.9981   15.2871 C   0  0  0  0  0  0  0  0  0  0  0  0
   11.9255   -1.4608   14.0678 C   0  0  0  0  0  0  0  0  0  0  0  0
   13.1870   -1.0544   14.3144 F   0  0  0  0  0  0  0  0  0  0  0  0
   11.2911   -0.3786   13.5618 F   0  0  0  0  0  0  0  0  0  0  0  0
   11.9993   -2.4123   13.1134 F   0  0  0  0  0  0  0  0  0  0  0  0
   13.5240   -1.4713   16.7721 N   0  0  0  0  0  0  0  0  0  0  0  0
   16.2823   -0.5212   14.7140 N   0  0  0  0  0  0  0  0  0  0  0  0
   17.0473   -0.8703   13.5439 C   0  0  0  0  0  0  0  0  0  0  0  0
   17.0627   -2.3886   13.3193 C   0  0  0  0  0  0  0  0  0  0  0  0
   18.0665   -2.8041   12.3503 N   0  0  0  0  0  0  0  0  0  0  0  0
   19.4097   -3.1412   12.7433 C   0  0  0  0  0  0  0  0  0  0  0  0
   20.0108   -3.6797   11.4608 C   0  0  0  0  0  0  0  0  0  0  0  0
   19.3188   -2.8689   10.3715 C   0  0  0  0  0  0  0  0  0  0  0  0
   17.9909   -2.5097   10.9949 C   0  0  0  0  0  0  0  0  0  0  0  0
   17.0580   -1.9902   10.4048 O   0  0  0  0  0  0  0  0  0  0  0  0
   15.8083    0.2987   18.0267 H   0  0  0  0  0  0  0  0  0  0  0  0
   14.8236    0.7424   16.6247 H   0  0  0  0  0  0  0  0  0  0  0  0
   16.4930   -2.7403   17.6715 H   0  0  0  0  0  0  0  0  0  0  0  0
   11.3576   -3.7568   16.5600 H   0  0  0  0  0  0  0  0  0  0  0  0
   12.2509   -3.8341   15.0674 H   0  0  0  0  0  0  0  0  0  0  0  0
   10.2148   -2.3407   14.9837 H   0  0  0  0  0  0  0  0  0  0  0  0
   11.0653   -1.1899   16.0100 H   0  0  0  0  0  0  0  0  0  0  0  0
   15.2625   -0.5512   14.6846 H   0  0  0  0  0  0  0  0  0  0  0  0
   16.6103   -0.3497   12.6863 H   0  0  0  0  0  0  0  0  0  0  0  0
   18.0654   -0.4959   13.6924 H   0  0  0  0  0  0  0  0  0  0  0  0
   17.2383   -2.9337   14.2536 H   0  0  0  0  0  0  0  0  0  0  0  0
   16.0802   -2.6915   12.9390 H   0  0  0  0  0  0  0  0  0  0  0  0
   19.4036   -3.8858   13.5440 H   0  0  0  0  0  0  0  0  0  0  0  0
   19.9190   -2.2315   13.0783 H   0  0  0  0  0  0  0  0  0  0  0  0
   19.7529   -4.7400   11.3448 H   0  0  0  0  0  0  0  0  0  0  0  0
   21.1004   -3.5930   11.4311 H   0  0  0  0  0  0  0  0  0  0  0  0
   19.8660   -1.9469   10.1527 H   0  0  0  0  0  0  0  0  0  0  0  0
   19.1775   -3.4530    9.4590 H   0  0  0  0  0  0  0  0  0  0  0  0
  1  2  2  0
  2  3  1  0
  3  4  1  0
  4  5  2  0
  5  6  1  0
  6  7  1  0
  7  8  1  0
  8  9  1  0
  9 10  1  0
 10 11  1  0
 10 12  1  0
 10 13  1  0
  7 14  2  0
  2 15  1  0
 15 16  1  0
 16 17  1  0
 17 18  1  0
 18 19  1  0
 19 20  1  0
 20 21  1  0
 21 22  1  0
 22 23  2  0
 14  4  1  0
 22 18  1  0
  3 24  1  0
  3 25  1  0
  5 26  1  0
  8 27  1  0
  8 28  1  0
  9 29  1  0
  9 30  1  0
 15 31  1  0
 16 32  1  0
 16 33  1  0
 17 34  1  0
 17 35  1  0
 19 36  1  0
 19 37  1  0
 20 38  1  0
 20 39  1  0
 21 40  1  0
 21 41  1  0
M  END
>  <Energy>  (408) 
2.9325409927756896

>  <compound_id>  (408) 
62082

>  <target_id>  (408) 
1

>  <reference_id>  (408) 
98

>  <inspiration_ids>  (408) 
[97, 98]

>  <energy_score>  (408) 
-30.894408711781068

>  <distance_score>  (408) 
2.2078073136037215

>  <path>  (408) 
/opt/xchem-fragalysis-2/maxwin/BulkDock/SCRATCH/511021/C62082-P98/C62082-P98.minimised.mol

>  <scratch_subdir>  (408) 
/opt/xchem-fragalysis-2/maxwin/BulkDock/SCRATCH/511021/C62082-P98

>  <fragmenstein_runtime>  (408) 
4.0339555740356445

>  <fragmenstein_outcome>  (408) 
too moved

>  <fragmenstein_mode>  (408) 
expansion

>  <fragmenstein_error>  (408) 


$$$$
C62083-P97
     RDKit          3D

 43 45  0  0  0  0  0  0  0  0999 V2000
   18.1499   -3.1610   14.6042 O   0  0  0  0  0  0  0  0  0  0  0  0
   16.9995   -3.1899   14.8061 C   0  0  0  0  0  0  0  0  0  0  0  0
   16.3510   -4.2466   15.7356 C   0  0  0  0  0  0  0  0  0  0  0  0
   16.4791   -3.9215   17.1455 N   0  0  0  0  0  0  0  0  0  0  0  0
   17.7307   -3.3938   17.6067 C   0  0  0  0  0  0  0  0  0  0  0  0
   17.6666   -3.3286   19.3880 S   0  0  0  0  0  0  0  0  0  0  0  0
   16.1135   -4.2281   19.5051 C   0  0  0  0  0  0  0  0  0  0  0  0
   15.6562   -4.5051   18.0946 C   0  0  0  0  0  0  0  0  0  0  0  0
   14.6549   -5.1710   17.8549 O   0  0  0  0  0  0  0  0  0  0  0  0
   15.8762   -2.2225   14.3543 N   0  0  0  0  0  0  0  0  0  0  0  0
   15.9232   -1.0791   13.4869 C   0  0  0  0  0  0  0  0  0  0  0  0
   15.8160    0.2565   14.2255 C   0  0  0  0  0  0  0  0  0  0  0  0
   14.4562    0.7130   14.7922 C   0  0  0  0  0  0  0  0  0  0  0  0
   14.4034    0.7427   16.3192 C   0  0  0  0  0  0  0  0  0  0  0  0
   14.3816   -0.6543   16.9017 C   0  0  0  0  0  0  0  0  0  0  0  0
   13.3775   -1.5156   16.2037 C   0  0  0  0  0  0  0  0  0  0  0  0
   13.0125   -2.7218   16.8064 C   0  0  0  0  0  0  0  0  0  0  0  0
   12.1262   -3.5644   16.1836 C   0  0  0  0  0  0  0  0  0  0  0  0
   11.5913   -3.1786   14.9682 C   0  0  0  0  0  0  0  0  0  0  0  0
   11.9877   -2.0054   14.3378 C   0  0  0  0  0  0  0  0  0  0  0  0
   12.9114   -1.1689   14.9276 C   0  0  0  0  0  0  0  0  0  0  0  0
   13.2978    0.0001   14.2803 N   0  0  0  0  0  0  0  0  0  0  0  0
   16.8443   -5.2092   15.5576 H   0  0  0  0  0  0  0  0  0  0  0  0
   15.2953   -4.3840   15.5286 H   0  0  0  0  0  0  0  0  0  0  0  0
   18.5438   -4.0561   17.2942 H   0  0  0  0  0  0  0  0  0  0  0  0
   17.8882   -2.3900   17.2036 H   0  0  0  0  0  0  0  0  0  0  0  0
   15.3636   -3.6230   20.0207 H   0  0  0  0  0  0  0  0  0  0  0  0
   16.2666   -5.1730   20.0321 H   0  0  0  0  0  0  0  0  0  0  0  0
   14.9765   -2.5925   14.6379 H   0  0  0  0  0  0  0  0  0  0  0  0
   15.1425   -1.1911   12.7287 H   0  0  0  0  0  0  0  0  0  0  0  0
   16.8879   -1.1162   12.9686 H   0  0  0  0  0  0  0  0  0  0  0  0
   16.1125    1.0213   13.4931 H   0  0  0  0  0  0  0  0  0  0  0  0
   16.5853    0.3045   15.0071 H   0  0  0  0  0  0  0  0  0  0  0  0
   14.3346    1.7581   14.4759 H   0  0  0  0  0  0  0  0  0  0  0  0
   15.2493    1.3077   16.7283 H   0  0  0  0  0  0  0  0  0  0  0  0
   13.4950    1.2755   16.6344 H   0  0  0  0  0  0  0  0  0  0  0  0
   14.1507   -0.5875   17.9707 H   0  0  0  0  0  0  0  0  0  0  0  0
   15.3736   -1.1110   16.8188 H   0  0  0  0  0  0  0  0  0  0  0  0
   13.4128   -3.0031   17.7741 H   0  0  0  0  0  0  0  0  0  0  0  0
   11.8437   -4.5060   16.6458 H   0  0  0  0  0  0  0  0  0  0  0  0
   10.8639   -3.8149   14.4824 H   0  0  0  0  0  0  0  0  0  0  0  0
   11.5823   -1.7568   13.3681 H   0  0  0  0  0  0  0  0  0  0  0  0
   13.1689   -0.0043   13.2738 H   0  0  0  0  0  0  0  0  0  0  0  0
  1  2  2  0
  2  3  1  0
  3  4  1  0
  4  5  1  0
  5  6  1  0
  6  7  1  0
  7  8  1  0
  8  9  2  0
  2 10  1  0
 10 11  1  0
 11 12  1  0
 12 13  1  0
 13 14  1  0
 14 15  1  0
 15 16  1  0
 16 17  2  0
 17 18  1  0
 18 19  2  0
 19 20  1  0
 20 21  2  0
 21 22  1  0
  8  4  1  0
 22 13  1  0
 21 16  1  0
  3 23  1  0
  3 24  1  0
  5 25  1  0
  5 26  1  0
  7 27  1  0
  7 28  1  0
 10 29  1  0
 11 30  1  0
 11 31  1  0
 12 32  1  0
 12 33  1  0
 13 34  1  0
 14 35  1  0
 14 36  1  0
 15 37  1  0
 15 38  1  0
 17 39  1  0
 18 40  1  0
 19 41  1  0
 20 42  1  0
 22 43  1  0
M  END
>  <Energy>  (409) 
22.657629831926826

>  <compound_id>  (409) 
62083

>  <target_id>  (409) 
1

>  <reference_id>  (409) 
97

>  <inspiration_ids>  (409) 
[97, 98]

>  <energy_score>  (409) 
-21.45481279798483

>  <distance_score>  (409) 
2.5070847273440657

>  <path>  (409) 
/opt/xchem-fragalysis-2/maxwin/BulkDock/SCRATCH/511021/C62083-P97/C62083-P97.minimised.mol

>  <scratch_subdir>  (409) 
/opt/xchem-fragalysis-2/maxwin/BulkDock/SCRATCH/511021/C62083-P97

>  <fragmenstein_runtime>  (409) 
3.5546772480010986

>  <fragmenstein_outcome>  (409) 
too moved

>  <fragmenstein_mode>  (409) 
expansion

>  <fragmenstein_error>  (409) 


$$$$
C62083-P98
     RDKit          3D

 43 45  0  0  0  0  0  0  0  0999 V2000
   18.0744   -2.7113   13.5009 O   0  0  0  0  0  0  0  0  0  0  0  0
   17.4287   -2.6006   14.4670 C   0  0  0  0  0  0  0  0  0  0  0  0
   16.8373   -3.8118   15.2421 C   0  0  0  0  0  0  0  0  0  0  0  0
   16.8698   -3.7102   16.7008 N   0  0  0  0  0  0  0  0  0  0  0  0
   18.1325   -3.4037   17.3118 C   0  0  0  0  0  0  0  0  0  0  0  0
   17.8596   -3.4150   19.0733 S   0  0  0  0  0  0  0  0  0  0  0  0
   16.4266   -4.4906   18.9467 C   0  0  0  0  0  0  0  0  0  0  0  0
   16.0506   -4.5310   17.4818 C   0  0  0  0  0  0  0  0  0  0  0  0
   15.1315   -5.2302   17.0763 O   0  0  0  0  0  0  0  0  0  0  0  0
   16.8952   -1.3293   15.1792 N   0  0  0  0  0  0  0  0  0  0  0  0
   16.9677    0.0645   14.7938 C   0  0  0  0  0  0  0  0  0  0  0  0
   15.7486    0.5289   13.9658 C   0  0  0  0  0  0  0  0  0  0  0  0
   14.5008   -0.2990   14.2448 C   0  0  0  0  0  0  0  0  0  0  0  0
   13.2567   -0.0015   13.4227 C   0  0  0  0  0  0  0  0  0  0  0  0
   12.1545   -1.0287   13.7699 C   0  0  0  0  0  0  0  0  0  0  0  0
   12.4034   -1.7826   15.0535 C   0  0  0  0  0  0  0  0  0  0  0  0
   11.7845   -2.9997   15.3056 C   0  0  0  0  0  0  0  0  0  0  0  0
   12.1554   -3.7314   16.4256 C   0  0  0  0  0  0  0  0  0  0  0  0
   13.0680   -3.2232   17.3408 C   0  0  0  0  0  0  0  0  0  0  0  0
   13.6672   -1.9970   17.1188 C   0  0  0  0  0  0  0  0  0  0  0  0
   13.3610   -1.2985   15.9582 C   0  0  0  0  0  0  0  0  0  0  0  0
   14.0908   -0.1330   15.6386 N   0  0  0  0  0  0  0  0  0  0  0  0
   15.7979   -3.9158   14.9378 H   0  0  0  0  0  0  0  0  0  0  0  0
   17.3817   -4.7183   14.9561 H   0  0  0  0  0  0  0  0  0  0  0  0
   18.8581   -4.1797   17.0467 H   0  0  0  0  0  0  0  0  0  0  0  0
   18.5068   -2.4294   16.9915 H   0  0  0  0  0  0  0  0  0  0  0  0
   15.5964   -4.0907   19.5334 H   0  0  0  0  0  0  0  0  0  0  0  0
   16.6809   -5.4984   19.2843 H   0  0  0  0  0  0  0  0  0  0  0  0
   16.4337   -1.5938   16.0464 H   0  0  0  0  0  0  0  0  0  0  0  0
   17.8875    0.2202   14.2213 H   0  0  0  0  0  0  0  0  0  0  0  0
   17.0356    0.6452   15.7194 H   0  0  0  0  0  0  0  0  0  0  0  0
   15.9981    0.4239   12.9020 H   0  0  0  0  0  0  0  0  0  0  0  0
   15.5741    1.5973   14.1398 H   0  0  0  0  0  0  0  0  0  0  0  0
   14.7798   -1.3401   14.0157 H   0  0  0  0  0  0  0  0  0  0  0  0
   12.8893    1.0103   13.6397 H   0  0  0  0  0  0  0  0  0  0  0  0
   13.4710   -0.0328   12.3484 H   0  0  0  0  0  0  0  0  0  0  0  0
   12.1046   -1.7574   12.9531 H   0  0  0  0  0  0  0  0  0  0  0  0
   11.1915   -0.5124   13.8330 H   0  0  0  0  0  0  0  0  0  0  0  0
   11.0603   -3.4045   14.6048 H   0  0  0  0  0  0  0  0  0  0  0  0
   11.7164   -4.7062   16.6013 H   0  0  0  0  0  0  0  0  0  0  0  0
   13.2925   -3.7975   18.2355 H   0  0  0  0  0  0  0  0  0  0  0  0
   14.3911   -1.6187   17.8322 H   0  0  0  0  0  0  0  0  0  0  0  0
   14.8538    0.0129   16.2899 H   0  0  0  0  0  0  0  0  0  0  0  0
  1  2  2  0
  2  3  1  0
  3  4  1  0
  4  5  1  0
  5  6  1  0
  6  7  1  0
  7  8  1  0
  8  9  2  0
  2 10  1  0
 10 11  1  0
 11 12  1  0
 12 13  1  0
 13 14  1  0
 14 15  1  0
 15 16  1  0
 16 17  2  0
 17 18  1  0
 18 19  2  0
 19 20  1  0
 20 21  2  0
 21 22  1  0
  8  4  1  0
 22 13  1  0
 21 16  1  0
  3 23  1  0
  3 24  1  0
  5 25  1  0
  5 26  1  0
  7 27  1  0
  7 28  1  0
 10 29  1  0
 11 30  1  0
 11 31  1  0
 12 32  1  0
 12 33  1  0
 13 34  1  0
 14 35  1  0
 14 36  1  0
 15 37  1  0
 15 38  1  0
 17 39  1  0
 18 40  1  0
 19 41  1  0
 20 42  1  0
 22 43  1  0
M  END
>  <Energy>  (410) 
32.172856461957807

>  <compound_id>  (410) 
62083

>  <target_id>  (410) 
1

>  <reference_id>  (410) 
98

>  <inspiration_ids>  (410) 
[97, 98]

>  <energy_score>  (410) 
-11.939586167954872

>  <distance_score>  (410) 
2.0760954708257904

>  <path>  (410) 
/opt/xchem-fragalysis-2/maxwin/BulkDock/SCRATCH/511021/C62083-P98/C62083-P98.minimised.mol

>  <scratch_subdir>  (410) 
/opt/xchem-fragalysis-2/maxwin/BulkDock/SCRATCH/511021/C62083-P98

>  <fragmenstein_runtime>  (410) 
2.64729642868042

>  <fragmenstein_outcome>  (410) 
too moved

>  <fragmenstein_mode>  (410) 
expansion

>  <fragmenstein_error>  (410) 


$$$$
C62084-P97
     RDKit          3D

 34 35  0  0  0  0  0  0  0  0999 V2000
   12.0203   -3.1448   16.1943 O   0  0  0  0  0  0  0  0  0  0  0  0
   12.3293   -2.1563   15.5384 C   0  0  0  0  0  0  0  0  0  0  0  0
   12.2399   -0.7523   16.0517 C   0  0  0  0  0  0  0  0  0  0  0  0
   13.0509    0.0498   15.0503 C   0  0  0  0  0  0  0  0  0  0  0  0
   12.9136   -0.7101   13.7387 C   0  0  0  0  0  0  0  0  0  0  0  0
   13.9540   -0.3386   12.6692 C   0  0  0  0  0  0  0  0  0  0  0  0
   15.4040   -0.3111   13.1536 C   0  0  0  0  0  0  0  0  0  0  0  0
   15.8891    0.6490   13.6041 O   0  0  0  0  0  0  0  0  0  0  0  0
   15.9638   -1.7459   13.0145 N   0  0  0  0  0  0  0  0  0  0  0  0
   17.2708   -2.2737   13.3148 C   0  0  0  0  0  0  0  0  0  0  0  0
   17.6166   -2.1909   14.8027 C   0  0  0  0  0  0  0  0  0  0  0  0
   16.5348   -2.6976   15.7135 C   0  0  0  0  0  0  0  0  0  0  0  0
   15.6692   -1.9614   16.5038 C   0  0  0  0  0  0  0  0  0  0  0  0
   14.7462   -2.7802   17.1935 C   0  0  0  0  0  0  0  0  0  0  0  0
   14.8523   -4.0954   16.8131 C   0  0  0  0  0  0  0  0  0  0  0  0
   16.2720   -4.3761   15.9062 S   0  0  0  0  0  0  0  0  0  0  0  0
   12.8967   -2.1846   14.1526 C   0  0  0  0  0  0  0  0  0  0  0  0
   11.1920   -0.4425   16.0472 H   0  0  0  0  0  0  0  0  0  0  0  0
   12.6894   -0.6712   17.0375 H   0  0  0  0  0  0  0  0  0  0  0  0
   12.6814    1.0773   14.9675 H   0  0  0  0  0  0  0  0  0  0  0  0
   14.0875    0.1116   15.3865 H   0  0  0  0  0  0  0  0  0  0  0  0
   11.9217   -0.4749   13.3297 H   0  0  0  0  0  0  0  0  0  0  0  0
   13.8757   -1.0061   11.8050 H   0  0  0  0  0  0  0  0  0  0  0  0
   13.7331    0.6675   12.2896 H   0  0  0  0  0  0  0  0  0  0  0  0
   15.3045   -2.3183   12.4989 H   0  0  0  0  0  0  0  0  0  0  0  0
   17.3012   -3.3071   12.9665 H   0  0  0  0  0  0  0  0  0  0  0  0
   18.0017   -1.6993   12.7363 H   0  0  0  0  0  0  0  0  0  0  0  0
   18.5536   -2.7293   14.9905 H   0  0  0  0  0  0  0  0  0  0  0  0
   17.8155   -1.1414   15.0580 H   0  0  0  0  0  0  0  0  0  0  0  0
   15.7328   -0.8839   16.5939 H   0  0  0  0  0  0  0  0  0  0  0  0
   13.9958   -2.4359   17.8896 H   0  0  0  0  0  0  0  0  0  0  0  0
   14.2102   -4.9038   17.1179 H   0  0  0  0  0  0  0  0  0  0  0  0
   12.2852   -2.7930   13.4851 H   0  0  0  0  0  0  0  0  0  0  0  0
   13.9115   -2.5516   14.2280 H   0  0  0  0  0  0  0  0  0  0  0  0
  1  2  2  0
  2  3  1  0
  3  4  1  0
  4  5  1  0
  5  6  1  0
  6  7  1  0
  7  8  2  0
  7  9  1  0
  9 10  1  0
 10 11  1  0
 11 12  1  0
 12 13  2  0
 13 14  1  0
 14 15  2  0
 15 16  1  0
  5 17  1  0
 17  2  1  0
 16 12  1  0
  3 18  1  0
  3 19  1  0
  4 20  1  0
  4 21  1  0
  5 22  1  0
  6 23  1  0
  6 24  1  0
  9 25  1  0
 10 26  1  0
 10 27  1  0
 11 28  1  0
 11 29  1  0
 13 30  1  0
 14 31  1  0
 15 32  1  0
 17 33  1  0
 17 34  1  0
M  END
>  <Energy>  (411) 
22.051043787808709

>  <compound_id>  (411) 
62084

>  <target_id>  (411) 
1

>  <reference_id>  (411) 
97

>  <inspiration_ids>  (411) 
[97, 98]

>  <energy_score>  (411) 
-9.864114486331971

>  <distance_score>  (411) 
2.765853998285251

>  <path>  (411) 
/opt/xchem-fragalysis-2/maxwin/BulkDock/SCRATCH/511021/C62084-P97/C62084-P97.minimised.mol

>  <scratch_subdir>  (411) 
/opt/xchem-fragalysis-2/maxwin/BulkDock/SCRATCH/511021/C62084-P97

>  <fragmenstein_runtime>  (411) 
4.158310651779175

>  <fragmenstein_outcome>  (411) 
too moved

>  <fragmenstein_mode>  (411) 
expansion

>  <fragmenstein_error>  (411) 


$$$$
C62084-P98
     RDKit          3D

 34 35  0  0  0  0  0  0  0  0999 V2000
   12.7503   -3.7779   17.4517 O   0  0  0  0  0  0  0  0  0  0  0  0
   13.8882   -3.3438   17.4198 C   0  0  0  0  0  0  0  0  0  0  0  0
   15.0953   -4.2011   17.1897 C   0  0  0  0  0  0  0  0  0  0  0  0
   16.2188   -3.1812   17.2811 C   0  0  0  0  0  0  0  0  0  0  0  0
   15.5690   -1.8761   16.8403 C   0  0  0  0  0  0  0  0  0  0  0  0
   16.4812   -0.6469   17.0341 C   0  0  0  0  0  0  0  0  0  0  0  0
   17.2952   -0.6124   15.7485 C   0  0  0  0  0  0  0  0  0  0  0  0
   18.4138   -0.9200   15.6502 O   0  0  0  0  0  0  0  0  0  0  0  0
   16.2730   -0.1923   14.6674 N   0  0  0  0  0  0  0  0  0  0  0  0
   16.3901   -0.1568   13.2416 C   0  0  0  0  0  0  0  0  0  0  0  0
   15.4396   -1.2625   12.7212 C   0  0  0  0  0  0  0  0  0  0  0  0
   13.9998   -1.0499   13.2056 C   0  0  0  0  0  0  0  0  0  0  0  0
   13.2411   -1.8305   14.0652 C   0  0  0  0  0  0  0  0  0  0  0  0
   11.9399   -1.3295   14.2994 C   0  0  0  0  0  0  0  0  0  0  0  0
   11.7379   -0.1521   13.6258 C   0  0  0  0  0  0  0  0  0  0  0  0
   13.1256    0.3624   12.7670 S   0  0  0  0  0  0  0  0  0  0  0  0
   14.2409   -1.8880   17.5714 C   0  0  0  0  0  0  0  0  0  0  0  0
   15.1845   -4.9743   17.9552 H   0  0  0  0  0  0  0  0  0  0  0  0
   15.0413   -4.6423   16.1923 H   0  0  0  0  0  0  0  0  0  0  0  0
   17.0678   -3.4661   16.6516 H   0  0  0  0  0  0  0  0  0  0  0  0
   16.5787   -3.1083   18.3152 H   0  0  0  0  0  0  0  0  0  0  0  0
   15.3444   -2.0303   15.7816 H   0  0  0  0  0  0  0  0  0  0  0  0
   15.9095    0.2806   17.1422 H   0  0  0  0  0  0  0  0  0  0  0  0
   17.1476   -0.7479   17.8958 H   0  0  0  0  0  0  0  0  0  0  0  0
   15.3604   -0.0698   15.0931 H   0  0  0  0  0  0  0  0  0  0  0  0
   17.4240   -0.3660   12.9538 H   0  0  0  0  0  0  0  0  0  0  0  0
   16.1042    0.8392   12.8937 H   0  0  0  0  0  0  0  0  0  0  0  0
   15.7860   -2.2457   13.0645 H   0  0  0  0  0  0  0  0  0  0  0  0
   15.4529   -1.2757   11.6250 H   0  0  0  0  0  0  0  0  0  0  0  0
   13.5999   -2.7332   14.5254 H   0  0  0  0  0  0  0  0  0  0  0  0
   11.1823   -1.8181   14.9000 H   0  0  0  0  0  0  0  0  0  0  0  0
   10.8295    0.4345   13.5908 H   0  0  0  0  0  0  0  0  0  0  0  0
   14.3622   -1.6447   18.6303 H   0  0  0  0  0  0  0  0  0  0  0  0
   13.5028   -1.2404   17.0954 H   0  0  0  0  0  0  0  0  0  0  0  0
  1  2  2  0
  2  3  1  0
  3  4  1  0
  4  5  1  0
  5  6  1  0
  6  7  1  0
  7  8  2  0
  7  9  1  0
  9 10  1  0
 10 11  1  0
 11 12  1  0
 12 13  2  0
 13 14  1  0
 14 15  2  0
 15 16  1  0
  5 17  1  0
 17  2  1  0
 16 12  1  0
  3 18  1  0
  3 19  1  0
  4 20  1  0
  4 21  1  0
  5 22  1  0
  6 23  1  0
  6 24  1  0
  9 25  1  0
 10 26  1  0
 10 27  1  0
 11 28  1  0
 11 29  1  0
 13 30  1  0
 14 31  1  0
 15 32  1  0
 17 33  1  0
 17 34  1  0
M  END
>  <Energy>  (412) 
24.981401633398761

>  <compound_id>  (412) 
62084

>  <target_id>  (412) 
1

>  <reference_id>  (412) 
98

>  <inspiration_ids>  (412) 
[97, 98]

>  <energy_score>  (412) 
-6.933756640742132

>  <distance_score>  (412) 
2.915688381996403

>  <path>  (412) 
/opt/xchem-fragalysis-2/maxwin/BulkDock/SCRATCH/511021/C62084-P98/C62084-P98.minimised.mol

>  <scratch_subdir>  (412) 
/opt/xchem-fragalysis-2/maxwin/BulkDock/SCRATCH/511021/C62084-P98

>  <fragmenstein_runtime>  (412) 
5.83804726600647

>  <fragmenstein_outcome>  (412) 
too moved

>  <fragmenstein_mode>  (412) 
expansion

>  <fragmenstein_error>  (412) 


$$$$
C62085-P97
     RDKit          3D

 31 32  0  0  0  0  0  0  0  0999 V2000
   17.7444   -3.0257   14.7912 O   0  0  0  0  0  0  0  0  0  0  0  0
   17.1921   -2.4407   15.6380 C   0  0  0  0  0  0  0  0  0  0  0  0
   16.6183   -3.1336   16.8970 C   0  0  0  0  0  0  0  0  0  0  0  0
   15.1854   -3.4148   16.7901 N   0  0  0  0  0  0  0  0  0  0  0  0
   14.3062   -2.5018   16.1262 C   0  0  0  0  0  0  0  0  0  0  0  0
   12.6328   -3.0967   16.2613 S   0  0  0  0  0  0  0  0  0  0  0  0
   13.0877   -4.4417   17.3252 C   0  0  0  0  0  0  0  0  0  0  0  0
   14.5796   -4.4244   17.4975 C   0  0  0  0  0  0  0  0  0  0  0  0
   15.1591   -5.2311   18.2141 O   0  0  0  0  0  0  0  0  0  0  0  0
   16.7867   -0.9393   15.7279 N   0  0  0  0  0  0  0  0  0  0  0  0
   16.8955    0.1198   14.7539 C   0  0  0  0  0  0  0  0  0  0  0  0
   15.7417    1.1290   14.8136 C   0  0  0  0  0  0  0  0  0  0  0  0
   14.3616    0.5529   14.6423 C   0  0  0  0  0  0  0  0  0  0  0  0
   13.2887    0.6572   15.5086 C   0  0  0  0  0  0  0  0  0  0  0  0
   12.1377   -0.0358   15.0407 C   0  0  0  0  0  0  0  0  0  0  0  0
   12.3820   -0.6826   13.8542 C   0  0  0  0  0  0  0  0  0  0  0  0
   13.9206   -0.2922   13.2197 S   0  0  0  0  0  0  0  0  0  0  0  0
   16.7765   -2.5037   17.7792 H   0  0  0  0  0  0  0  0  0  0  0  0
   17.1650   -4.0675   17.0676 H   0  0  0  0  0  0  0  0  0  0  0  0
   14.5935   -2.4309   15.0789 H   0  0  0  0  0  0  0  0  0  0  0  0
   14.3718   -1.5439   16.6412 H   0  0  0  0  0  0  0  0  0  0  0  0
   12.6544   -4.3316   18.3147 H   0  0  0  0  0  0  0  0  0  0  0  0
   12.7681   -5.3637   16.8488 H   0  0  0  0  0  0  0  0  0  0  0  0
   16.3922   -0.7488   16.6414 H   0  0  0  0  0  0  0  0  0  0  0  0
   17.8430    0.6331   14.9484 H   0  0  0  0  0  0  0  0  0  0  0  0
   16.9736   -0.3441   13.7652 H   0  0  0  0  0  0  0  0  0  0  0  0
   15.7844    1.6459   15.7816 H   0  0  0  0  0  0  0  0  0  0  0  0
   15.9019    1.8982   14.0476 H   0  0  0  0  0  0  0  0  0  0  0  0
   13.3303    1.2007   16.4447 H   0  0  0  0  0  0  0  0  0  0  0  0
   11.1933   -0.1082   15.5643 H   0  0  0  0  0  0  0  0  0  0  0  0
   11.7132   -1.3350   13.3153 H   0  0  0  0  0  0  0  0  0  0  0  0
  1  2  2  0
  2  3  1  0
  3  4  1  0
  4  5  1  0
  5  6  1  0
  6  7  1  0
  7  8  1  0
  8  9  2  0
  2 10  1  0
 10 11  1  0
 11 12  1  0
 12 13  1  0
 13 14  2  0
 14 15  1  0
 15 16  2  0
 16 17  1  0
  8  4  1  0
 17 13  1  0
  3 18  1  0
  3 19  1  0
  5 20  1  0
  5 21  1  0
  7 22  1  0
  7 23  1  0
 10 24  1  0
 11 25  1  0
 11 26  1  0
 12 27  1  0
 12 28  1  0
 14 29  1  0
 15 30  1  0
 16 31  1  0
M  END
>  <Energy>  (413) 
32.859844748289056

>  <compound_id>  (413) 
62085

>  <target_id>  (413) 
1

>  <reference_id>  (413) 
97

>  <inspiration_ids>  (413) 
[97, 98]

>  <energy_score>  (413) 
-14.543865132814517

>  <distance_score>  (413) 
1.9576453482996437

>  <path>  (413) 
/opt/xchem-fragalysis-2/maxwin/BulkDock/SCRATCH/511021/C62085-P97/C62085-P97.minimised.mol

>  <scratch_subdir>  (413) 
/opt/xchem-fragalysis-2/maxwin/BulkDock/SCRATCH/511021/C62085-P97

>  <fragmenstein_runtime>  (413) 
1.4484267234802246

>  <fragmenstein_outcome>  (413) 
too moved

>  <fragmenstein_mode>  (413) 
expansion

>  <fragmenstein_error>  (413) 


$$$$
C62085-P98
     RDKit          3D

 31 32  0  0  0  0  0  0  0  0999 V2000
   17.6365   -3.0477   14.1699 O   0  0  0  0  0  0  0  0  0  0  0  0
   17.0984   -2.7094   15.1493 C   0  0  0  0  0  0  0  0  0  0  0  0
   16.6269   -3.7367   16.2159 C   0  0  0  0  0  0  0  0  0  0  0  0
   15.3147   -3.5358   16.8393 N   0  0  0  0  0  0  0  0  0  0  0  0
   14.2702   -2.8313   16.1483 C   0  0  0  0  0  0  0  0  0  0  0  0
   12.7086   -3.5357   16.6307 S   0  0  0  0  0  0  0  0  0  0  0  0
   13.4139   -4.1603   18.1563 C   0  0  0  0  0  0  0  0  0  0  0  0
   14.8552   -4.4202   17.8074 C   0  0  0  0  0  0  0  0  0  0  0  0
   15.5151   -5.3104   18.3244 O   0  0  0  0  0  0  0  0  0  0  0  0
   16.6890   -1.2926   15.6336 N   0  0  0  0  0  0  0  0  0  0  0  0
   16.7732   -0.0131   14.9677 C   0  0  0  0  0  0  0  0  0  0  0  0
   15.5064    0.8497   15.0790 C   0  0  0  0  0  0  0  0  0  0  0  0
   14.2095    0.1910   14.6820 C   0  0  0  0  0  0  0  0  0  0  0  0
   13.0211    0.1830   15.3921 C   0  0  0  0  0  0  0  0  0  0  0  0
   12.0190   -0.6217   14.7797 C   0  0  0  0  0  0  0  0  0  0  0  0
   12.4734   -1.2032   13.6212 C   0  0  0  0  0  0  0  0  0  0  0  0
   14.0276   -0.6310   13.1905 S   0  0  0  0  0  0  0  0  0  0  0  0
   17.3823   -3.7883   17.0077 H   0  0  0  0  0  0  0  0  0  0  0  0
   16.5934   -4.7196   15.7292 H   0  0  0  0  0  0  0  0  0  0  0  0
   14.4139   -2.8766   15.0744 H   0  0  0  0  0  0  0  0  0  0  0  0
   14.2934   -1.8081   16.5148 H   0  0  0  0  0  0  0  0  0  0  0  0
   13.3747   -3.4176   18.9557 H   0  0  0  0  0  0  0  0  0  0  0  0
   12.9407   -5.0767   18.4907 H   0  0  0  0  0  0  0  0  0  0  0  0
   16.3114   -1.3515   16.5729 H   0  0  0  0  0  0  0  0  0  0  0  0
   17.6200    0.5219   15.4103 H   0  0  0  0  0  0  0  0  0  0  0  0
   17.0218   -0.2043   13.9183 H   0  0  0  0  0  0  0  0  0  0  0  0
   15.4143    1.1794   16.1227 H   0  0  0  0  0  0  0  0  0  0  0  0
   15.6399    1.7587   14.4794 H   0  0  0  0  0  0  0  0  0  0  0  0
   12.8899    0.7041   16.3320 H   0  0  0  0  0  0  0  0  0  0  0  0
   11.0251   -0.7992   15.1711 H   0  0  0  0  0  0  0  0  0  0  0  0
   11.9436   -1.8890   12.9766 H   0  0  0  0  0  0  0  0  0  0  0  0
  1  2  2  0
  2  3  1  0
  3  4  1  0
  4  5  1  0
  5  6  1  0
  6  7  1  0
  7  8  1  0
  8  9  2  0
  2 10  1  0
 10 11  1  0
 11 12  1  0
 12 13  1  0
 13 14  2  0
 14 15  1  0
 15 16  2  0
 16 17  1  0
  8  4  1  0
 17 13  1  0
  3 18  1  0
  3 19  1  0
  5 20  1  0
  5 21  1  0
  7 22  1  0
  7 23  1  0
 10 24  1  0
 11 25  1  0
 11 26  1  0
 12 27  1  0
 12 28  1  0
 14 29  1  0
 15 30  1  0
 16 31  1  0
M  END
>  <Energy>  (414) 
33.549146395425872

>  <compound_id>  (414) 
62085

>  <target_id>  (414) 
1

>  <reference_id>  (414) 
98

>  <inspiration_ids>  (414) 
[97, 98]

>  <energy_score>  (414) 
-13.854563485678682

>  <distance_score>  (414) 
1.700411974147462

>  <path>  (414) 
/opt/xchem-fragalysis-2/maxwin/BulkDock/SCRATCH/511021/C62085-P98/C62085-P98.minimised.mol

>  <scratch_subdir>  (414) 
/opt/xchem-fragalysis-2/maxwin/BulkDock/SCRATCH/511021/C62085-P98

>  <fragmenstein_runtime>  (414) 
1.4727532863616943

>  <fragmenstein_outcome>  (414) 
too moved

>  <fragmenstein_mode>  (414) 
expansion

>  <fragmenstein_error>  (414) 


$$$$
C62086-P97
     RDKit          3D

 42 43  0  0  0  0  0  0  0  0999 V2000
   17.8297   -0.8545   18.6447 O   0  0  0  0  0  0  0  0  0  0  0  0
   16.6882   -0.9563   18.4164 C   0  0  0  0  0  0  0  0  0  0  0  0
   15.7738   -1.9044   19.2355 C   0  0  0  0  0  0  0  0  0  0  0  0
   15.7651   -3.3043   18.7765 N   0  0  0  0  0  0  0  0  0  0  0  0
   17.0310   -4.0048   18.6364 C   0  0  0  0  0  0  0  0  0  0  0  0
   17.5459   -4.0031   17.1913 C   0  0  0  0  0  0  0  0  0  0  0  0
   16.5362   -4.4695   16.1360 C   0  0  0  0  0  0  0  0  0  0  0  0
   15.4579   -3.4237   15.7914 C   0  0  0  0  0  0  0  0  0  0  0  0
   14.0267   -3.7995   16.2223 C   0  0  0  0  0  0  0  0  0  0  0  0
   13.6429   -3.3751   17.6197 C   0  0  0  0  0  0  0  0  0  0  0  0
   14.6197   -4.0435   18.5292 C   0  0  0  0  0  0  0  0  0  0  0  0
   14.5044   -5.2461   18.7667 O   0  0  0  0  0  0  0  0  0  0  0  0
   15.8303   -0.3367   17.2789 N   0  0  0  0  0  0  0  0  0  0  0  0
   16.2198    0.4565   16.1369 C   0  0  0  0  0  0  0  0  0  0  0  0
   15.0614    1.1098   15.3850 C   0  0  0  0  0  0  0  0  0  0  0  0
   14.0111    0.1445   14.9096 C   0  0  0  0  0  0  0  0  0  0  0  0
   14.1133   -0.8589   13.9701 C   0  0  0  0  0  0  0  0  0  0  0  0
   12.8880   -1.5645   13.7937 C   0  0  0  0  0  0  0  0  0  0  0  0
   11.8916   -1.0969   14.6160 C   0  0  0  0  0  0  0  0  0  0  0  0
   12.4144    0.2535   15.5122 S   0  0  0  0  0  0  0  0  0  0  0  0
   16.1559   -1.9114   20.2642 H   0  0  0  0  0  0  0  0  0  0  0  0
   14.7587   -1.5060   19.3047 H   0  0  0  0  0  0  0  0  0  0  0  0
   17.7715   -3.5592   19.3097 H   0  0  0  0  0  0  0  0  0  0  0  0
   16.9051   -5.0457   18.9577 H   0  0  0  0  0  0  0  0  0  0  0  0
   17.9092   -3.0051   16.9219 H   0  0  0  0  0  0  0  0  0  0  0  0
   18.4217   -4.6630   17.1503 H   0  0  0  0  0  0  0  0  0  0  0  0
   16.0989   -5.4306   16.4236 H   0  0  0  0  0  0  0  0  0  0  0  0
   17.1068   -4.6650   15.2184 H   0  0  0  0  0  0  0  0  0  0  0  0
   15.7298   -2.4450   16.1700 H   0  0  0  0  0  0  0  0  0  0  0  0
   15.4866   -3.2983   14.7056 H   0  0  0  0  0  0  0  0  0  0  0  0
   13.2970   -3.3518   15.5522 H   0  0  0  0  0  0  0  0  0  0  0  0
   13.8949   -4.8821   16.1499 H   0  0  0  0  0  0  0  0  0  0  0  0
   12.6404   -3.7256   17.8611 H   0  0  0  0  0  0  0  0  0  0  0  0
   13.6549   -2.2910   17.6881 H   0  0  0  0  0  0  0  0  0  0  0  0
   14.8555   -0.5662   17.4268 H   0  0  0  0  0  0  0  0  0  0  0  0
   16.9244    1.2166   16.4907 H   0  0  0  0  0  0  0  0  0  0  0  0
   16.7825   -0.2102   15.4737 H   0  0  0  0  0  0  0  0  0  0  0  0
   15.4606    1.6476   14.5160 H   0  0  0  0  0  0  0  0  0  0  0  0
   14.6093    1.8700   16.0351 H   0  0  0  0  0  0  0  0  0  0  0  0
   15.0260   -1.0877   13.4316 H   0  0  0  0  0  0  0  0  0  0  0  0
   12.7494   -2.3964   13.1164 H   0  0  0  0  0  0  0  0  0  0  0  0
   10.8742   -1.4563   14.6886 H   0  0  0  0  0  0  0  0  0  0  0  0
  1  2  2  0
  2  3  1  0
  3  4  1  0
  4  5  1  0
  5  6  1  0
  6  7  1  0
  7  8  1  0
  8  9  1  0
  9 10  1  0
 10 11  1  0
 11 12  2  0
  2 13  1  0
 13 14  1  0
 14 15  1  0
 15 16  1  0
 16 17  2  0
 17 18  1  0
 18 19  2  0
 19 20  1  0
 11  4  1  0
 20 16  1  0
  3 21  1  0
  3 22  1  0
  5 23  1  0
  5 24  1  0
  6 25  1  0
  6 26  1  0
  7 27  1  0
  7 28  1  0
  8 29  1  0
  8 30  1  0
  9 31  1  0
  9 32  1  0
 10 33  1  0
 10 34  1  0
 13 35  1  0
 14 36  1  0
 14 37  1  0
 15 38  1  0
 15 39  1  0
 17 40  1  0
 18 41  1  0
 19 42  1  0
M  END
>  <Energy>  (415) 
56.475006392123667

>  <compound_id>  (415) 
62086

>  <target_id>  (415) 
1

>  <reference_id>  (415) 
97

>  <inspiration_ids>  (415) 
[97, 98]

>  <energy_score>  (415) 
-37.95421058131825

>  <distance_score>  (415) 
2.864912411136975

>  <path>  (415) 
/opt/xchem-fragalysis-2/maxwin/BulkDock/SCRATCH/511021/C62086-P97/C62086-P97.minimised.mol

>  <scratch_subdir>  (415) 
/opt/xchem-fragalysis-2/maxwin/BulkDock/SCRATCH/511021/C62086-P97

>  <fragmenstein_runtime>  (415) 
3.811910390853882

>  <fragmenstein_outcome>  (415) 
too moved

>  <fragmenstein_mode>  (415) 
expansion

>  <fragmenstein_error>  (415) 


$$$$
C62086-P98
     RDKit          3D

 42 43  0  0  0  0  0  0  0  0999 V2000
   17.4179   -0.2780   19.1945 O   0  0  0  0  0  0  0  0  0  0  0  0
   16.4200   -0.7021   18.7613 C   0  0  0  0  0  0  0  0  0  0  0  0
   15.6658   -1.9041   19.3891 C   0  0  0  0  0  0  0  0  0  0  0  0
   15.7176   -3.0916   18.5213 N   0  0  0  0  0  0  0  0  0  0  0  0
   17.0226   -3.6987   18.3062 C   0  0  0  0  0  0  0  0  0  0  0  0
   17.0418   -4.6601   17.1105 C   0  0  0  0  0  0  0  0  0  0  0  0
   16.6498   -4.0437   15.7672 C   0  0  0  0  0  0  0  0  0  0  0  0
   15.3407   -3.2435   15.6756 C   0  0  0  0  0  0  0  0  0  0  0  0
   14.0544   -3.9219   16.1860 C   0  0  0  0  0  0  0  0  0  0  0  0
   13.5830   -3.5428   17.5780 C   0  0  0  0  0  0  0  0  0  0  0  0
   14.6389   -3.9745   18.5418 C   0  0  0  0  0  0  0  0  0  0  0  0
   14.6459   -5.1013   19.0247 O   0  0  0  0  0  0  0  0  0  0  0  0
   15.6404   -0.3216   17.4734 N   0  0  0  0  0  0  0  0  0  0  0  0
   15.9801    0.5928   16.4064 C   0  0  0  0  0  0  0  0  0  0  0  0
   14.7857    1.1542   15.6315 C   0  0  0  0  0  0  0  0  0  0  0  0
   13.8321    0.1229   15.0859 C   0  0  0  0  0  0  0  0  0  0  0  0
   12.7526   -0.4483   15.7302 C   0  0  0  0  0  0  0  0  0  0  0  0
   12.0233   -1.3504   14.9136 C   0  0  0  0  0  0  0  0  0  0  0  0
   12.5965   -1.4775   13.6730 C   0  0  0  0  0  0  0  0  0  0  0  0
   13.9360   -0.4287   13.4704 S   0  0  0  0  0  0  0  0  0  0  0  0
   16.1200   -2.1574   20.3534 H   0  0  0  0  0  0  0  0  0  0  0  0
   14.6261   -1.6181   19.5789 H   0  0  0  0  0  0  0  0  0  0  0  0
   17.7591   -2.9076   18.1318 H   0  0  0  0  0  0  0  0  0  0  0  0
   17.3069   -4.2356   19.2188 H   0  0  0  0  0  0  0  0  0  0  0  0
   16.4026   -5.5281   17.3024 H   0  0  0  0  0  0  0  0  0  0  0  0
   18.0573   -5.0658   17.0170 H   0  0  0  0  0  0  0  0  0  0  0  0
   16.6175   -4.8551   15.0318 H   0  0  0  0  0  0  0  0  0  0  0  0
   17.4639   -3.3824   15.4426 H   0  0  0  0  0  0  0  0  0  0  0  0
   15.4852   -2.2806   16.1401 H   0  0  0  0  0  0  0  0  0  0  0  0
   15.2208   -2.9908   14.6179 H   0  0  0  0  0  0  0  0  0  0  0  0
   13.2264   -3.6701   15.5211 H   0  0  0  0  0  0  0  0  0  0  0  0
   14.1820   -5.0070   16.1468 H   0  0  0  0  0  0  0  0  0  0  0  0
   12.6547   -4.0637   17.8183 H   0  0  0  0  0  0  0  0  0  0  0  0
   13.3985   -2.4732   17.6514 H   0  0  0  0  0  0  0  0  0  0  0  0
   14.8545   -0.9460   17.3574 H   0  0  0  0  0  0  0  0  0  0  0  0
   16.5762    1.4039   16.8373 H   0  0  0  0  0  0  0  0  0  0  0  0
   16.6369    0.0364   15.7280 H   0  0  0  0  0  0  0  0  0  0  0  0
   14.2177    1.8140   16.3012 H   0  0  0  0  0  0  0  0  0  0  0  0
   15.1558    1.7936   14.8205 H   0  0  0  0  0  0  0  0  0  0  0  0
   12.4955   -0.2104   16.7482 H   0  0  0  0  0  0  0  0  0  0  0  0
   11.1383   -1.9002   15.2079 H   0  0  0  0  0  0  0  0  0  0  0  0
   12.2698   -2.1103   12.8611 H   0  0  0  0  0  0  0  0  0  0  0  0
  1  2  2  0
  2  3  1  0
  3  4  1  0
  4  5  1  0
  5  6  1  0
  6  7  1  0
  7  8  1  0
  8  9  1  0
  9 10  1  0
 10 11  1  0
 11 12  2  0
  2 13  1  0
 13 14  1  0
 14 15  1  0
 15 16  1  0
 16 17  2  0
 17 18  1  0
 18 19  2  0
 19 20  1  0
 11  4  1  0
 20 16  1  0
  3 21  1  0
  3 22  1  0
  5 23  1  0
  5 24  1  0
  6 25  1  0
  6 26  1  0
  7 27  1  0
  7 28  1  0
  8 29  1  0
  8 30  1  0
  9 31  1  0
  9 32  1  0
 10 33  1  0
 10 34  1  0
 13 35  1  0
 14 36  1  0
 14 37  1  0
 15 38  1  0
 15 39  1  0
 17 40  1  0
 18 41  1  0
 19 42  1  0
M  END
>  <Energy>  (416) 
56.65168240135727

>  <compound_id>  (416) 
62086

>  <target_id>  (416) 
1

>  <reference_id>  (416) 
98

>  <inspiration_ids>  (416) 
[97, 98]

>  <energy_score>  (416) 
-37.77753457208516

>  <distance_score>  (416) 
2.9110906343327536

>  <path>  (416) 
/opt/xchem-fragalysis-2/maxwin/BulkDock/SCRATCH/511021/C62086-P98/C62086-P98.minimised.mol

>  <scratch_subdir>  (416) 
/opt/xchem-fragalysis-2/maxwin/BulkDock/SCRATCH/511021/C62086-P98

>  <fragmenstein_runtime>  (416) 
4.363055944442749

>  <fragmenstein_outcome>  (416) 
too moved

>  <fragmenstein_mode>  (416) 
expansion

>  <fragmenstein_error>  (416) 


$$$$
C62087-P97
     RDKit          3D

 33 34  0  0  0  0  0  0  0  0999 V2000
   17.5828   -3.1228   14.1099 O   0  0  0  0  0  0  0  0  0  0  0  0
   17.0803   -2.7928   15.1108 C   0  0  0  0  0  0  0  0  0  0  0  0
   16.6397   -3.8296   16.1802 C   0  0  0  0  0  0  0  0  0  0  0  0
   15.4181   -3.5654   16.9472 N   0  0  0  0  0  0  0  0  0  0  0  0
   14.2588   -2.9359   16.3729 C   0  0  0  0  0  0  0  0  0  0  0  0
   13.0759   -3.7022   16.9061 C   0  0  0  0  0  0  0  0  0  0  0  0
   13.5753   -4.1348   18.2654 C   0  0  0  0  0  0  0  0  0  0  0  0
   15.0069   -4.4426   17.9471 C   0  0  0  0  0  0  0  0  0  0  0  0
   15.6528   -5.3327   18.4667 O   0  0  0  0  0  0  0  0  0  0  0  0
   16.6970   -1.3807   15.6246 N   0  0  0  0  0  0  0  0  0  0  0  0
   16.7669   -0.0947   14.9716 C   0  0  0  0  0  0  0  0  0  0  0  0
   15.4998    0.7632   15.1099 C   0  0  0  0  0  0  0  0  0  0  0  0
   14.1943    0.0795   14.7934 C   0  0  0  0  0  0  0  0  0  0  0  0
   13.0412    0.0806   15.5584 C   0  0  0  0  0  0  0  0  0  0  0  0
   12.0251   -0.7628   15.0268 C   0  0  0  0  0  0  0  0  0  0  0  0
   12.4329   -1.3767   13.8681 C   0  0  0  0  0  0  0  0  0  0  0  0
   13.9541   -0.7914   13.3400 S   0  0  0  0  0  0  0  0  0  0  0  0
   16.4831   -4.7854   15.6651 H   0  0  0  0  0  0  0  0  0  0  0  0
   17.4654   -3.9681   16.8867 H   0  0  0  0  0  0  0  0  0  0  0  0
   14.2341   -1.9188   16.7651 H   0  0  0  0  0  0  0  0  0  0  0  0
   14.3082   -2.9446   15.2903 H   0  0  0  0  0  0  0  0  0  0  0  0
   12.8805   -4.5868   16.2958 H   0  0  0  0  0  0  0  0  0  0  0  0
   12.1672   -3.1042   16.9319 H   0  0  0  0  0  0  0  0  0  0  0  0
   13.0645   -5.0105   18.6537 H   0  0  0  0  0  0  0  0  0  0  0  0
   13.5593   -3.3415   19.0141 H   0  0  0  0  0  0  0  0  0  0  0  0
   16.2008   -1.4636   16.5038 H   0  0  0  0  0  0  0  0  0  0  0  0
   17.6198    0.4394   15.4032 H   0  0  0  0  0  0  0  0  0  0  0  0
   16.9965   -0.2756   13.9159 H   0  0  0  0  0  0  0  0  0  0  0  0
   15.5993    1.6553   14.4794 H   0  0  0  0  0  0  0  0  0  0  0  0
   15.4503    1.1229   16.1466 H   0  0  0  0  0  0  0  0  0  0  0  0
   12.9513    0.6362   16.4831 H   0  0  0  0  0  0  0  0  0  0  0  0
   11.0539   -0.9352   15.4713 H   0  0  0  0  0  0  0  0  0  0  0  0
   11.8856   -2.0914   13.2711 H   0  0  0  0  0  0  0  0  0  0  0  0
  1  2  2  0
  2  3  1  0
  3  4  1  0
  4  5  1  0
  5  6  1  0
  6  7  1  0
  7  8  1  0
  8  9  2  0
  2 10  1  0
 10 11  1  0
 11 12  1  0
 12 13  1  0
 13 14  2  0
 14 15  1  0
 15 16  2  0
 16 17  1  0
  8  4  1  0
 17 13  1  0
  3 18  1  0
  3 19  1  0
  5 20  1  0
  5 21  1  0
  6 22  1  0
  6 23  1  0
  7 24  1  0
  7 25  1  0
 10 26  1  0
 11 27  1  0
 11 28  1  0
 12 29  1  0
 12 30  1  0
 14 31  1  0
 15 32  1  0
 16 33  1  0
M  END
>  <Energy>  (417) 
32.377524284370601

>  <compound_id>  (417) 
62087

>  <target_id>  (417) 
1

>  <reference_id>  (417) 
97

>  <inspiration_ids>  (417) 
[97, 98]

>  <energy_score>  (417) 
-4.966749948073584

>  <distance_score>  (417) 
1.675150931096283

>  <path>  (417) 
/opt/xchem-fragalysis-2/maxwin/BulkDock/SCRATCH/511021/C62087-P97/C62087-P97.minimised.mol

>  <scratch_subdir>  (417) 
/opt/xchem-fragalysis-2/maxwin/BulkDock/SCRATCH/511021/C62087-P97

>  <fragmenstein_runtime>  (417) 
2.326474905014038

>  <fragmenstein_outcome>  (417) 
too moved

>  <fragmenstein_mode>  (417) 
expansion

>  <fragmenstein_error>  (417) 


$$$$
C62087-P98
     RDKit          3D

 33 34  0  0  0  0  0  0  0  0999 V2000
   17.5835   -2.3260   14.4781 O   0  0  0  0  0  0  0  0  0  0  0  0
   16.9665   -2.3197   15.4692 C   0  0  0  0  0  0  0  0  0  0  0  0
   16.5319   -3.6212   16.2001 C   0  0  0  0  0  0  0  0  0  0  0  0
   15.2571   -3.5421   16.9237 N   0  0  0  0  0  0  0  0  0  0  0  0
   14.0833   -2.9465   16.3377 C   0  0  0  0  0  0  0  0  0  0  0  0
   12.9280   -3.7638   16.8540 C   0  0  0  0  0  0  0  0  0  0  0  0
   13.4362   -4.1927   18.2126 C   0  0  0  0  0  0  0  0  0  0  0  0
   14.8753   -4.4619   17.8893 C   0  0  0  0  0  0  0  0  0  0  0  0
   15.5463   -5.3489   18.3809 O   0  0  0  0  0  0  0  0  0  0  0  0
   16.3994   -1.1334   16.2922 N   0  0  0  0  0  0  0  0  0  0  0  0
   16.3940    0.2806   16.0139 C   0  0  0  0  0  0  0  0  0  0  0  0
   15.6475    0.6416   14.7183 C   0  0  0  0  0  0  0  0  0  0  0  0
   14.2462    0.0890   14.6311 C   0  0  0  0  0  0  0  0  0  0  0  0
   13.1799    0.2510   15.4951 C   0  0  0  0  0  0  0  0  0  0  0  0
   12.0425   -0.5215   15.1110 C   0  0  0  0  0  0  0  0  0  0  0  0
   12.2748   -1.2424   13.9646 C   0  0  0  0  0  0  0  0  0  0  0  0
   13.7954   -0.8690   13.2797 S   0  0  0  0  0  0  0  0  0  0  0  0
   16.4266   -4.4157   15.4533 H   0  0  0  0  0  0  0  0  0  0  0  0
   17.3210   -3.9106   16.9014 H   0  0  0  0  0  0  0  0  0  0  0  0
   14.0011   -1.9321   16.7258 H   0  0  0  0  0  0  0  0  0  0  0  0
   14.1483   -2.9564   15.2556 H   0  0  0  0  0  0  0  0  0  0  0  0
   12.7737   -4.6494   16.2356 H   0  0  0  0  0  0  0  0  0  0  0  0
   11.9975   -3.2002   16.8716 H   0  0  0  0  0  0  0  0  0  0  0  0
   12.9528   -5.0834   18.6013 H   0  0  0  0  0  0  0  0  0  0  0  0
   13.3896   -3.3969   18.9600 H   0  0  0  0  0  0  0  0  0  0  0  0
   15.9813   -1.4839   17.1489 H   0  0  0  0  0  0  0  0  0  0  0  0
   15.9356    0.7775   16.8752 H   0  0  0  0  0  0  0  0  0  0  0  0
   17.4358    0.6081   15.9386 H   0  0  0  0  0  0  0  0  0  0  0  0
   16.2435    0.2889   13.8666 H   0  0  0  0  0  0  0  0  0  0  0  0
   15.5998    1.7340   14.6297 H   0  0  0  0  0  0  0  0  0  0  0  0
   13.2250    0.8704   16.3824 H   0  0  0  0  0  0  0  0  0  0  0  0
   11.1057   -0.5608   15.6494 H   0  0  0  0  0  0  0  0  0  0  0  0
   11.6105   -1.9282   13.4608 H   0  0  0  0  0  0  0  0  0  0  0  0
  1  2  2  0
  2  3  1  0
  3  4  1  0
  4  5  1  0
  5  6  1  0
  6  7  1  0
  7  8  1  0
  8  9  2  0
  2 10  1  0
 10 11  1  0
 11 12  1  0
 12 13  1  0
 13 14  2  0
 14 15  1  0
 15 16  2  0
 16 17  1  0
  8  4  1  0
 17 13  1  0
  3 18  1  0
  3 19  1  0
  5 20  1  0
  5 21  1  0
  6 22  1  0
  6 23  1  0
  7 24  1  0
  7 25  1  0
 10 26  1  0
 11 27  1  0
 11 28  1  0
 12 29  1  0
 12 30  1  0
 14 31  1  0
 15 32  1  0
 16 33  1  0
M  END
>  <Energy>  (418) 
28.431015612349313

>  <compound_id>  (418) 
62087

>  <target_id>  (418) 
1

>  <reference_id>  (418) 
98

>  <inspiration_ids>  (418) 
[97, 98]

>  <energy_score>  (418) 
-8.913258620096144

>  <distance_score>  (418) 
1.8003303778759867

>  <path>  (418) 
/opt/xchem-fragalysis-2/maxwin/BulkDock/SCRATCH/511021/C62087-P98/C62087-P98.minimised.mol

>  <scratch_subdir>  (418) 
/opt/xchem-fragalysis-2/maxwin/BulkDock/SCRATCH/511021/C62087-P98

>  <fragmenstein_runtime>  (418) 
1.996086597442627

>  <fragmenstein_outcome>  (418) 
too moved

>  <fragmenstein_mode>  (418) 
expansion

>  <fragmenstein_error>  (418) 


$$$$
C62088-P97
     RDKit          3D

 39 40  0  0  0  0  0  0  0  0999 V2000
   15.3725    2.8427   14.9389 O   0  0  0  0  0  0  0  0  0  0  0  0
   15.9944    1.9336   14.5500 C   0  0  0  0  0  0  0  0  0  0  0  0
   16.4185    1.7862   13.0792 C   0  0  0  0  0  0  0  0  0  0  0  0
   15.8184    0.5902   12.4720 N   0  0  0  0  0  0  0  0  0  0  0  0
   14.3859    0.6460   12.2055 C   0  0  0  0  0  0  0  0  0  0  0  0
   13.5495   -0.1440   13.2073 C   0  0  0  0  0  0  0  0  0  0  0  0
   13.8635   -1.6394   13.2474 C   0  0  0  0  0  0  0  0  0  0  0  0
   14.5164   -2.1489   11.9774 C   0  0  0  0  0  0  0  0  0  0  0  0
   16.0011   -1.8401   11.8415 C   0  0  0  0  0  0  0  0  0  0  0  0
   16.5559   -0.5774   12.4709 C   0  0  0  0  0  0  0  0  0  0  0  0
   17.6903   -0.6006   12.9622 O   0  0  0  0  0  0  0  0  0  0  0  0
   16.4860    0.6617   15.2902 N   0  0  0  0  0  0  0  0  0  0  0  0
   16.3948    0.2959   16.6746 C   0  0  0  0  0  0  0  0  0  0  0  0
   14.9470    0.1635   17.1395 C   0  0  0  0  0  0  0  0  0  0  0  0
   14.2757   -1.1618   16.8803 C   0  0  0  0  0  0  0  0  0  0  0  0
   13.0349   -1.3843   16.3148 C   0  0  0  0  0  0  0  0  0  0  0  0
   12.6896   -2.7636   16.2719 C   0  0  0  0  0  0  0  0  0  0  0  0
   13.6406   -3.5537   16.8690 C   0  0  0  0  0  0  0  0  0  0  0  0
   14.9478   -2.6368   17.4636 S   0  0  0  0  0  0  0  0  0  0  0  0
   16.0919    2.6676   12.5164 H   0  0  0  0  0  0  0  0  0  0  0  0
   17.5123    1.7553   13.0305 H   0  0  0  0  0  0  0  0  0  0  0  0
   14.2197    0.3152   11.1764 H   0  0  0  0  0  0  0  0  0  0  0  0
   14.0643    1.6945   12.2236 H   0  0  0  0  0  0  0  0  0  0  0  0
   12.4911   -0.0049   12.9607 H   0  0  0  0  0  0  0  0  0  0  0  0
   13.6777    0.2879   14.2028 H   0  0  0  0  0  0  0  0  0  0  0  0
   14.5343   -1.8610   14.0821 H   0  0  0  0  0  0  0  0  0  0  0  0
   12.9298   -2.1861   13.4190 H   0  0  0  0  0  0  0  0  0  0  0  0
   14.3885   -3.2305   11.8980 H   0  0  0  0  0  0  0  0  0  0  0  0
   14.0165   -1.7354   11.1045 H   0  0  0  0  0  0  0  0  0  0  0  0
   16.5506   -2.6689   12.3067 H   0  0  0  0  0  0  0  0  0  0  0  0
   16.2838   -1.8384   10.7822 H   0  0  0  0  0  0  0  0  0  0  0  0
   17.0776    0.1101   14.6654 H   0  0  0  0  0  0  0  0  0  0  0  0
   16.8687    1.1117   17.2314 H   0  0  0  0  0  0  0  0  0  0  0  0
   16.9862   -0.6104   16.8289 H   0  0  0  0  0  0  0  0  0  0  0  0
   14.9299    0.3119   18.2284 H   0  0  0  0  0  0  0  0  0  0  0  0
   14.3321    0.9695   16.7205 H   0  0  0  0  0  0  0  0  0  0  0  0
   12.4059   -0.5917   15.9290 H   0  0  0  0  0  0  0  0  0  0  0  0
   11.7810   -3.1607   15.8347 H   0  0  0  0  0  0  0  0  0  0  0  0
   13.6227   -4.6267   16.9872 H   0  0  0  0  0  0  0  0  0  0  0  0
  1  2  2  0
  2  3  1  0
  3  4  1  0
  4  5  1  0
  5  6  1  0
  6  7  1  0
  7  8  1  0
  8  9  1  0
  9 10  1  0
 10 11  2  0
  2 12  1  0
 12 13  1  0
 13 14  1  0
 14 15  1  0
 15 16  2  0
 16 17  1  0
 17 18  2  0
 18 19  1  0
 10  4  1  0
 19 15  1  0
  3 20  1  0
  3 21  1  0
  5 22  1  0
  5 23  1  0
  6 24  1  0
  6 25  1  0
  7 26  1  0
  7 27  1  0
  8 28  1  0
  8 29  1  0
  9 30  1  0
  9 31  1  0
 12 32  1  0
 13 33  1  0
 13 34  1  0
 14 35  1  0
 14 36  1  0
 16 37  1  0
 17 38  1  0
 18 39  1  0
M  END
>  <Energy>  (419) 
34.644173574222485

>  <compound_id>  (419) 
62088

>  <target_id>  (419) 
1

>  <reference_id>  (419) 
97

>  <inspiration_ids>  (419) 
[97, 98]

>  <energy_score>  (419) 
-24.345667841522072

>  <distance_score>  (419) 
2.926944171760143

>  <path>  (419) 
/opt/xchem-fragalysis-2/maxwin/BulkDock/SCRATCH/511021/C62088-P97/C62088-P97.minimised.mol

>  <scratch_subdir>  (419) 
/opt/xchem-fragalysis-2/maxwin/BulkDock/SCRATCH/511021/C62088-P97

>  <fragmenstein_runtime>  (419) 
6.34686803817749

>  <fragmenstein_outcome>  (419) 
too moved

>  <fragmenstein_mode>  (419) 
expansion

>  <fragmenstein_error>  (419) 


$$$$
C62088-P98
     RDKit          3D

 39 40  0  0  0  0  0  0  0  0999 V2000
   15.5389    2.5930   13.6209 O   0  0  0  0  0  0  0  0  0  0  0  0
   15.4555    1.4777   13.2884 C   0  0  0  0  0  0  0  0  0  0  0  0
   14.4351    0.9878   12.2506 C   0  0  0  0  0  0  0  0  0  0  0  0
   13.4278    0.1227   12.8992 N   0  0  0  0  0  0  0  0  0  0  0  0
   12.7275    0.7197   14.0375 C   0  0  0  0  0  0  0  0  0  0  0  0
   11.2948    0.2636   14.2600 C   0  0  0  0  0  0  0  0  0  0  0  0
   11.1676   -1.0137   15.0824 C   0  0  0  0  0  0  0  0  0  0  0  0
   12.1405   -2.1162   14.7095 C   0  0  0  0  0  0  0  0  0  0  0  0
   12.4922   -2.1496   13.2458 C   0  0  0  0  0  0  0  0  0  0  0  0
   13.6236   -1.2479   12.8179 C   0  0  0  0  0  0  0  0  0  0  0  0
   14.6652   -1.7187   12.3548 O   0  0  0  0  0  0  0  0  0  0  0  0
   16.1916    0.2193   13.8066 N   0  0  0  0  0  0  0  0  0  0  0  0
   17.1058    0.0599   14.8977 C   0  0  0  0  0  0  0  0  0  0  0  0
   16.3172   -0.0191   16.2073 C   0  0  0  0  0  0  0  0  0  0  0  0
   15.6250   -1.3375   16.4699 C   0  0  0  0  0  0  0  0  0  0  0  0
   15.5920   -2.5095   15.7397 C   0  0  0  0  0  0  0  0  0  0  0  0
   14.9015   -3.5601   16.4185 C   0  0  0  0  0  0  0  0  0  0  0  0
   14.3635   -3.1520   17.6130 C   0  0  0  0  0  0  0  0  0  0  0  0
   14.7860   -1.5399   17.9604 S   0  0  0  0  0  0  0  0  0  0  0  0
   13.9133    1.8525   11.8263 H   0  0  0  0  0  0  0  0  0  0  0  0
   14.9515    0.4720   11.4349 H   0  0  0  0  0  0  0  0  0  0  0  0
   12.6874    1.8011   13.8555 H   0  0  0  0  0  0  0  0  0  0  0  0
   13.3292    0.5617   14.9397 H   0  0  0  0  0  0  0  0  0  0  0  0
   10.7869    0.1711   13.2957 H   0  0  0  0  0  0  0  0  0  0  0  0
   10.7565    1.0506   14.8040 H   0  0  0  0  0  0  0  0  0  0  0  0
   11.3190   -0.7691   16.1398 H   0  0  0  0  0  0  0  0  0  0  0  0
   10.1381   -1.3825   15.0092 H   0  0  0  0  0  0  0  0  0  0  0  0
   13.0438   -1.9640   15.2914 H   0  0  0  0  0  0  0  0  0  0  0  0
   11.7167   -3.0780   15.0208 H   0  0  0  0  0  0  0  0  0  0  0  0
   12.7579   -3.1635   12.9534 H   0  0  0  0  0  0  0  0  0  0  0  0
   11.6373   -1.9008   12.6382 H   0  0  0  0  0  0  0  0  0  0  0  0
   15.8144   -0.6113   13.3450 H   0  0  0  0  0  0  0  0  0  0  0  0
   17.7441    0.9492   14.9154 H   0  0  0  0  0  0  0  0  0  0  0  0
   17.7270   -0.8218   14.7175 H   0  0  0  0  0  0  0  0  0  0  0  0
   17.0272    0.1489   17.0283 H   0  0  0  0  0  0  0  0  0  0  0  0
   15.5780    0.7911   16.2535 H   0  0  0  0  0  0  0  0  0  0  0  0
   16.0701   -2.6424   14.7754 H   0  0  0  0  0  0  0  0  0  0  0  0
   14.7928   -4.5676   16.0405 H   0  0  0  0  0  0  0  0  0  0  0  0
   13.7751   -3.7309   18.3129 H   0  0  0  0  0  0  0  0  0  0  0  0
  1  2  2  0
  2  3  1  0
  3  4  1  0
  4  5  1  0
  5  6  1  0
  6  7  1  0
  7  8  1  0
  8  9  1  0
  9 10  1  0
 10 11  2  0
  2 12  1  0
 12 13  1  0
 13 14  1  0
 14 15  1  0
 15 16  2  0
 16 17  1  0
 17 18  2  0
 18 19  1  0
 10  4  1  0
 19 15  1  0
  3 20  1  0
  3 21  1  0
  5 22  1  0
  5 23  1  0
  6 24  1  0
  6 25  1  0
  7 26  1  0
  7 27  1  0
  8 28  1  0
  8 29  1  0
  9 30  1  0
  9 31  1  0
 12 32  1  0
 13 33  1  0
 13 34  1  0
 14 35  1  0
 14 36  1  0
 16 37  1  0
 17 38  1  0
 18 39  1  0
M  END
>  <Energy>  (420) 
31.466856945819728

>  <compound_id>  (420) 
62088

>  <target_id>  (420) 
1

>  <reference_id>  (420) 
98

>  <inspiration_ids>  (420) 
[97, 98]

>  <energy_score>  (420) 
-27.522984469922733

>  <distance_score>  (420) 
2.6200520713798725

>  <path>  (420) 
/opt/xchem-fragalysis-2/maxwin/BulkDock/SCRATCH/511021/C62088-P98/C62088-P98.minimised.mol

>  <scratch_subdir>  (420) 
/opt/xchem-fragalysis-2/maxwin/BulkDock/SCRATCH/511021/C62088-P98

>  <fragmenstein_runtime>  (420) 
7.049731731414795

>  <fragmenstein_outcome>  (420) 
too moved

>  <fragmenstein_mode>  (420) 
expansion

>  <fragmenstein_error>  (420) 


$$$$
C62089-P97
     RDKit          3D

 36 37  0  0  0  0  0  0  0  0999 V2000
   19.1854   -1.9439   15.6209 O   0  0  0  0  0  0  0  0  0  0  0  0
   18.0754   -2.3045   15.5699 C   0  0  0  0  0  0  0  0  0  0  0  0
   17.5600   -3.5579   16.3240 C   0  0  0  0  0  0  0  0  0  0  0  0
   16.2023   -3.3674   16.8487 N   0  0  0  0  0  0  0  0  0  0  0  0
   15.9890   -2.2867   17.7870 C   0  0  0  0  0  0  0  0  0  0  0  0
   14.5867   -1.7200   17.6368 C   0  0  0  0  0  0  0  0  0  0  0  0
   13.6258   -2.7206   16.9980 C   0  0  0  0  0  0  0  0  0  0  0  0
   13.9489   -4.1269   17.4476 C   0  0  0  0  0  0  0  0  0  0  0  0
   15.3500   -4.4581   16.9693 C   0  0  0  0  0  0  0  0  0  0  0  0
   15.6959   -5.6067   16.7362 O   0  0  0  0  0  0  0  0  0  0  0  0
   16.8669   -1.7329   14.7783 N   0  0  0  0  0  0  0  0  0  0  0  0
   16.7569   -0.5452   13.9633 C   0  0  0  0  0  0  0  0  0  0  0  0
   15.6021    0.3833   14.3783 C   0  0  0  0  0  0  0  0  0  0  0  0
   14.2160   -0.2137   14.3168 C   0  0  0  0  0  0  0  0  0  0  0  0
   13.1081    0.1437   15.0653 C   0  0  0  0  0  0  0  0  0  0  0  0
   11.9845   -0.7005   14.8270 C   0  0  0  0  0  0  0  0  0  0  0  0
   12.2704   -1.6793   13.9064 C   0  0  0  0  0  0  0  0  0  0  0  0
   13.8128   -1.4525   13.2117 S   0  0  0  0  0  0  0  0  0  0  0  0
   17.5833   -4.4045   15.6299 H   0  0  0  0  0  0  0  0  0  0  0  0
   18.2220   -3.7713   17.1699 H   0  0  0  0  0  0  0  0  0  0  0  0
   16.7273   -1.4897   17.6534 H   0  0  0  0  0  0  0  0  0  0  0  0
   16.1272   -2.6933   18.7969 H   0  0  0  0  0  0  0  0  0  0  0  0
   14.2513   -1.4119   18.6299 H   0  0  0  0  0  0  0  0  0  0  0  0
   14.6236   -0.8037   17.0473 H   0  0  0  0  0  0  0  0  0  0  0  0
   13.7579   -2.6923   15.9161 H   0  0  0  0  0  0  0  0  0  0  0  0
   12.5858   -2.4664   17.1935 H   0  0  0  0  0  0  0  0  0  0  0  0
   13.2443   -4.8223   16.9819 H   0  0  0  0  0  0  0  0  0  0  0  0
   13.8963   -4.2384   18.5349 H   0  0  0  0  0  0  0  0  0  0  0  0
   16.0233   -2.2445   15.0291 H   0  0  0  0  0  0  0  0  0  0  0  0
   16.6550   -0.8726   12.9238 H   0  0  0  0  0  0  0  0  0  0  0  0
   17.7058   -0.0037   14.0409 H   0  0  0  0  0  0  0  0  0  0  0  0
   15.6190    1.2723   13.7356 H   0  0  0  0  0  0  0  0  0  0  0  0
   15.7851    0.7293   15.4038 H   0  0  0  0  0  0  0  0  0  0  0  0
   13.1150    0.9566   15.7815 H   0  0  0  0  0  0  0  0  0  0  0  0
   11.0234   -0.6159   15.3168 H   0  0  0  0  0  0  0  0  0  0  0  0
   11.6272   -2.4755   13.5593 H   0  0  0  0  0  0  0  0  0  0  0  0
  1  2  2  0
  2  3  1  0
  3  4  1  0
  4  5  1  0
  5  6  1  0
  6  7  1  0
  7  8  1  0
  8  9  1  0
  9 10  2  0
  2 11  1  0
 11 12  1  0
 12 13  1  0
 13 14  1  0
 14 15  2  0
 15 16  1  0
 16 17  2  0
 17 18  1  0
  9  4  1  0
 18 14  1  0
  3 19  1  0
  3 20  1  0
  5 21  1  0
  5 22  1  0
  6 23  1  0
  6 24  1  0
  7 25  1  0
  7 26  1  0
  8 27  1  0
  8 28  1  0
 11 29  1  0
 12 30  1  0
 12 31  1  0
 13 32  1  0
 13 33  1  0
 15 34  1  0
 16 35  1  0
 17 36  1  0
M  END
>  <Energy>  (421) 
32.59139599255419

>  <compound_id>  (421) 
62089

>  <target_id>  (421) 
1

>  <reference_id>  (421) 
97

>  <inspiration_ids>  (421) 
[97, 98]

>  <energy_score>  (421) 
-25.1796183000572

>  <distance_score>  (421) 
2.0990250716921466

>  <path>  (421) 
/opt/xchem-fragalysis-2/maxwin/BulkDock/SCRATCH/511021/C62089-P97/C62089-P97.minimised.mol

>  <scratch_subdir>  (421) 
/opt/xchem-fragalysis-2/maxwin/BulkDock/SCRATCH/511021/C62089-P97

>  <fragmenstein_runtime>  (421) 
4.173117637634277

>  <fragmenstein_outcome>  (421) 
too moved

>  <fragmenstein_mode>  (421) 
expansion

>  <fragmenstein_error>  (421) 


$$$$
C62089-P98
     RDKit          3D

 36 37  0  0  0  0  0  0  0  0999 V2000
   16.8549   -2.8240   14.5906 O   0  0  0  0  0  0  0  0  0  0  0  0
   16.9780   -2.3001   15.6279 C   0  0  0  0  0  0  0  0  0  0  0  0
   17.2100   -3.1045   16.9460 C   0  0  0  0  0  0  0  0  0  0  0  0
   15.9694   -3.3347   17.6965 N   0  0  0  0  0  0  0  0  0  0  0  0
   15.2544   -2.2149   18.2543 C   0  0  0  0  0  0  0  0  0  0  0  0
   14.0819   -1.8663   17.3673 C   0  0  0  0  0  0  0  0  0  0  0  0
   13.1497   -3.0642   17.3258 C   0  0  0  0  0  0  0  0  0  0  0  0
   13.8873   -4.2542   16.7813 C   0  0  0  0  0  0  0  0  0  0  0  0
   15.2368   -4.4805   17.4279 C   0  0  0  0  0  0  0  0  0  0  0  0
   15.6836   -5.6079   17.5979 O   0  0  0  0  0  0  0  0  0  0  0  0
   16.8526   -0.7963   16.0206 N   0  0  0  0  0  0  0  0  0  0  0  0
   16.6443    0.3747   15.1975 C   0  0  0  0  0  0  0  0  0  0  0  0
   15.7550    0.2076   13.9621 C   0  0  0  0  0  0  0  0  0  0  0  0
   14.3266   -0.1974   14.2072 C   0  0  0  0  0  0  0  0  0  0  0  0
   13.3609    0.3681   15.0168 C   0  0  0  0  0  0  0  0  0  0  0  0
   12.1273   -0.3542   14.9843 C   0  0  0  0  0  0  0  0  0  0  0  0
   12.1874   -1.4462   14.1515 C   0  0  0  0  0  0  0  0  0  0  0  0
   13.6741   -1.5131   13.3210 S   0  0  0  0  0  0  0  0  0  0  0  0
   17.6565   -4.0672   16.6718 H   0  0  0  0  0  0  0  0  0  0  0  0
   17.9209   -2.5788   17.5915 H   0  0  0  0  0  0  0  0  0  0  0  0
   14.8857   -2.5258   19.2408 H   0  0  0  0  0  0  0  0  0  0  0  0
   15.9224   -1.3709   18.4360 H   0  0  0  0  0  0  0  0  0  0  0  0
   14.4350   -1.6698   16.3613 H   0  0  0  0  0  0  0  0  0  0  0  0
   13.5857   -0.9632   17.7257 H   0  0  0  0  0  0  0  0  0  0  0  0
   12.2643   -2.8564   16.7206 H   0  0  0  0  0  0  0  0  0  0  0  0
   12.8259   -3.3203   18.3371 H   0  0  0  0  0  0  0  0  0  0  0  0
   14.0882   -4.0788   15.7304 H   0  0  0  0  0  0  0  0  0  0  0  0
   13.2725   -5.1495   16.8792 H   0  0  0  0  0  0  0  0  0  0  0  0
   17.1027   -0.6788   16.9929 H   0  0  0  0  0  0  0  0  0  0  0  0
   17.6387    0.7068   14.8800 H   0  0  0  0  0  0  0  0  0  0  0  0
   16.2362    1.1484   15.8570 H   0  0  0  0  0  0  0  0  0  0  0  0
   16.2402   -0.5034   13.2813 H   0  0  0  0  0  0  0  0  0  0  0  0
   15.7357    1.1662   13.4266 H   0  0  0  0  0  0  0  0  0  0  0  0
   13.5318    1.2497   15.6215 H   0  0  0  0  0  0  0  0  0  0  0  0
   11.2425   -0.0906   15.5474 H   0  0  0  0  0  0  0  0  0  0  0  0
   11.4137   -2.1722   13.9443 H   0  0  0  0  0  0  0  0  0  0  0  0
  1  2  2  0
  2  3  1  0
  3  4  1  0
  4  5  1  0
  5  6  1  0
  6  7  1  0
  7  8  1  0
  8  9  1  0
  9 10  2  0
  2 11  1  0
 11 12  1  0
 12 13  1  0
 13 14  1  0
 14 15  2  0
 15 16  1  0
 16 17  2  0
 17 18  1  0
  9  4  1  0
 18 14  1  0
  3 19  1  0
  3 20  1  0
  5 21  1  0
  5 22  1  0
  6 23  1  0
  6 24  1  0
  7 25  1  0
  7 26  1  0
  8 27  1  0
  8 28  1  0
 11 29  1  0
 12 30  1  0
 12 31  1  0
 13 32  1  0
 13 33  1  0
 15 34  1  0
 16 35  1  0
 17 36  1  0
M  END
>  <Energy>  (422) 
49.013734668696436

>  <compound_id>  (422) 
62089

>  <target_id>  (422) 
1

>  <reference_id>  (422) 
98

>  <inspiration_ids>  (422) 
[97, 98]

>  <energy_score>  (422) 
-8.757279623916276

>  <distance_score>  (422) 
2.0806685133279963

>  <path>  (422) 
/opt/xchem-fragalysis-2/maxwin/BulkDock/SCRATCH/511021/C62089-P98/C62089-P98.minimised.mol

>  <scratch_subdir>  (422) 
/opt/xchem-fragalysis-2/maxwin/BulkDock/SCRATCH/511021/C62089-P98

>  <fragmenstein_runtime>  (422) 
3.199122905731201

>  <fragmenstein_outcome>  (422) 
too moved

>  <fragmenstein_mode>  (422) 
expansion

>  <fragmenstein_error>  (422) 


$$$$
C62090-P97
     RDKit          3D

 31 32  0  0  0  0  0  0  0  0999 V2000
   14.8899    1.2703   11.8292 O   0  0  0  0  0  0  0  0  0  0  0  0
   14.3121    1.0963   12.8266 C   0  0  0  0  0  0  0  0  0  0  0  0
   12.7790    1.0500   12.9366 C   0  0  0  0  0  0  0  0  0  0  0  0
   12.2935   -0.0639   13.7608 N   0  0  0  0  0  0  0  0  0  0  0  0
   12.8191   -1.4140   13.6249 C   0  0  0  0  0  0  0  0  0  0  0  0
   11.8795   -2.4037   14.2750 C   0  0  0  0  0  0  0  0  0  0  0  0
   10.8891   -1.4265   15.4101 S   0  0  0  0  0  0  0  0  0  0  0  0
   11.3143    0.1111   14.7018 C   0  0  0  0  0  0  0  0  0  0  0  0
   10.8475    1.1700   15.0873 O   0  0  0  0  0  0  0  0  0  0  0  0
   14.8378    0.8189   14.2537 N   0  0  0  0  0  0  0  0  0  0  0  0
   16.1758    0.6046   14.7294 C   0  0  0  0  0  0  0  0  0  0  0  0
   16.1894    0.1423   16.1798 C   0  0  0  0  0  0  0  0  0  0  0  0
   15.4420   -1.1460   16.4315 C   0  0  0  0  0  0  0  0  0  0  0  0
   14.1635   -1.3077   16.9264 C   0  0  0  0  0  0  0  0  0  0  0  0
   13.8164   -2.6786   17.1075 C   0  0  0  0  0  0  0  0  0  0  0  0
   14.8284   -3.5260   16.7370 C   0  0  0  0  0  0  0  0  0  0  0  0
   16.1995   -2.6692   16.2046 S   0  0  0  0  0  0  0  0  0  0  0  0
   12.3595    0.9365   11.9348 H   0  0  0  0  0  0  0  0  0  0  0  0
   12.4306    2.0062   13.3405 H   0  0  0  0  0  0  0  0  0  0  0  0
   13.0004   -1.6568   12.5786 H   0  0  0  0  0  0  0  0  0  0  0  0
   13.7943   -1.4674   14.1099 H   0  0  0  0  0  0  0  0  0  0  0  0
   12.4143   -3.1855   14.8124 H   0  0  0  0  0  0  0  0  0  0  0  0
   11.2584   -2.9086   13.5382 H   0  0  0  0  0  0  0  0  0  0  0  0
   14.0549    0.6345   14.8737 H   0  0  0  0  0  0  0  0  0  0  0  0
   16.6459   -0.1298   14.0667 H   0  0  0  0  0  0  0  0  0  0  0  0
   16.7209    1.5469   14.6149 H   0  0  0  0  0  0  0  0  0  0  0  0
   15.7493    0.9254   16.8118 H   0  0  0  0  0  0  0  0  0  0  0  0
   17.2294    0.0326   16.5118 H   0  0  0  0  0  0  0  0  0  0  0  0
   13.5141   -0.4765   17.1702 H   0  0  0  0  0  0  0  0  0  0  0  0
   12.8684   -3.0419   17.4834 H   0  0  0  0  0  0  0  0  0  0  0  0
   14.8360   -4.6063   16.7630 H   0  0  0  0  0  0  0  0  0  0  0  0
  1  2  2  0
  2  3  1  0
  3  4  1  0
  4  5  1  0
  5  6  1  0
  6  7  1  0
  7  8  1  0
  8  9  2  0
  2 10  1  0
 10 11  1  0
 11 12  1  0
 12 13  1  0
 13 14  2  0
 14 15  1  0
 15 16  2  0
 16 17  1  0
  8  4  1  0
 17 13  1  0
  3 18  1  0
  3 19  1  0
  5 20  1  0
  5 21  1  0
  6 22  1  0
  6 23  1  0
 10 24  1  0
 11 25  1  0
 11 26  1  0
 12 27  1  0
 12 28  1  0
 14 29  1  0
 15 30  1  0
 16 31  1  0
M  END
>  <Energy>  (423) 
7.3154506599051539

>  <compound_id>  (423) 
62090

>  <target_id>  (423) 
1

>  <reference_id>  (423) 
97

>  <inspiration_ids>  (423) 
[97, 98]

>  <energy_score>  (423) 
-21.46584978925719

>  <distance_score>  (423) 
2.658427318917998

>  <path>  (423) 
/opt/xchem-fragalysis-2/maxwin/BulkDock/SCRATCH/511021/C62090-P97/C62090-P97.minimised.mol

>  <scratch_subdir>  (423) 
/opt/xchem-fragalysis-2/maxwin/BulkDock/SCRATCH/511021/C62090-P97

>  <fragmenstein_runtime>  (423) 
2.252732992172241

>  <fragmenstein_outcome>  (423) 
too moved

>  <fragmenstein_mode>  (423) 
expansion

>  <fragmenstein_error>  (423) 


$$$$
C62090-P98
     RDKit          3D

 31 32  0  0  0  0  0  0  0  0999 V2000
   14.6097    1.7491   12.5501 O   0  0  0  0  0  0  0  0  0  0  0  0
   13.8142    1.5112   13.3706 C   0  0  0  0  0  0  0  0  0  0  0  0
   12.3459    1.1758   13.0398 C   0  0  0  0  0  0  0  0  0  0  0  0
   11.9111   -0.0609   13.6868 N   0  0  0  0  0  0  0  0  0  0  0  0
   12.6484   -1.2939   13.4908 C   0  0  0  0  0  0  0  0  0  0  0  0
   11.9054   -2.4422   14.1336 C   0  0  0  0  0  0  0  0  0  0  0  0
   10.8325   -1.6813   15.3520 S   0  0  0  0  0  0  0  0  0  0  0  0
   11.0178   -0.0646   14.7250 C   0  0  0  0  0  0  0  0  0  0  0  0
   10.5116    0.9067   15.2632 O   0  0  0  0  0  0  0  0  0  0  0  0
   13.9684    1.3637   14.9065 N   0  0  0  0  0  0  0  0  0  0  0  0
   15.1455    1.3848   15.7334 C   0  0  0  0  0  0  0  0  0  0  0  0
   15.9330    0.0762   15.6101 C   0  0  0  0  0  0  0  0  0  0  0  0
   15.2421   -1.1575   16.1520 C   0  0  0  0  0  0  0  0  0  0  0  0
   14.0707   -1.3006   16.8692 C   0  0  0  0  0  0  0  0  0  0  0  0
   13.7779   -2.6619   17.1830 C   0  0  0  0  0  0  0  0  0  0  0  0
   14.7350   -3.5243   16.7171 C   0  0  0  0  0  0  0  0  0  0  0  0
   15.9894   -2.6951   15.9257 S   0  0  0  0  0  0  0  0  0  0  0  0
   11.7141    2.0176   13.3399 H   0  0  0  0  0  0  0  0  0  0  0  0
   12.2537    1.0359   11.9583 H   0  0  0  0  0  0  0  0  0  0  0  0
   13.6357   -1.1850   13.9418 H   0  0  0  0  0  0  0  0  0  0  0  0
   12.8166   -1.4751   12.4290 H   0  0  0  0  0  0  0  0  0  0  0  0
   12.5817   -3.1433   14.6170 H   0  0  0  0  0  0  0  0  0  0  0  0
   11.3235   -3.0039   13.4034 H   0  0  0  0  0  0  0  0  0  0  0  0
   13.0850    1.0721   15.3091 H   0  0  0  0  0  0  0  0  0  0  0  0
   15.7707    2.2133   15.3853 H   0  0  0  0  0  0  0  0  0  0  0  0
   14.8372    1.5835   16.7642 H   0  0  0  0  0  0  0  0  0  0  0  0
   16.8803    0.1979   16.1512 H   0  0  0  0  0  0  0  0  0  0  0  0
   16.1841   -0.0946   14.5550 H   0  0  0  0  0  0  0  0  0  0  0  0
   13.4409   -0.4715   17.1624 H   0  0  0  0  0  0  0  0  0  0  0  0
   12.9055   -3.0121   17.7191 H   0  0  0  0  0  0  0  0  0  0  0  0
   14.7632   -4.6002   16.8114 H   0  0  0  0  0  0  0  0  0  0  0  0
  1  2  2  0
  2  3  1  0
  3  4  1  0
  4  5  1  0
  5  6  1  0
  6  7  1  0
  7  8  1  0
  8  9  2  0
  2 10  1  0
 10 11  1  0
 11 12  1  0
 12 13  1  0
 13 14  2  0
 14 15  1  0
 15 16  2  0
 16 17  1  0
  8  4  1  0
 17 13  1  0
  3 18  1  0
  3 19  1  0
  5 20  1  0
  5 21  1  0
  6 22  1  0
  6 23  1  0
 10 24  1  0
 11 25  1  0
 11 26  1  0
 12 27  1  0
 12 28  1  0
 14 29  1  0
 15 30  1  0
 16 31  1  0
M  END
>  <Energy>  (424) 
4.4208404543912092

>  <compound_id>  (424) 
62090

>  <target_id>  (424) 
1

>  <reference_id>  (424) 
98

>  <inspiration_ids>  (424) 
[97, 98]

>  <energy_score>  (424) 
-24.36045999477146

>  <distance_score>  (424) 
2.858510473406272

>  <path>  (424) 
/opt/xchem-fragalysis-2/maxwin/BulkDock/SCRATCH/511021/C62090-P98/C62090-P98.minimised.mol

>  <scratch_subdir>  (424) 
/opt/xchem-fragalysis-2/maxwin/BulkDock/SCRATCH/511021/C62090-P98

>  <fragmenstein_runtime>  (424) 
2.6521646976470947

>  <fragmenstein_outcome>  (424) 
too moved

>  <fragmenstein_mode>  (424) 
expansion

>  <fragmenstein_error>  (424) 


$$$$
C62091-P97
     RDKit          3D

 40 42  0  0  0  0  0  0  0  0999 V2000
   15.5466    2.2579   14.6333 O   0  0  0  0  0  0  0  0  0  0  0  0
   15.3358    1.2577   14.0752 C   0  0  0  0  0  0  0  0  0  0  0  0
   14.0800    1.0268   13.2543 C   0  0  0  0  0  0  0  0  0  0  0  0
   13.0356    0.1663   14.0072 C   0  0  0  0  0  0  0  0  0  0  0  0
   11.6195    0.6460   13.6312 C   0  0  0  0  0  0  0  0  0  0  0  0
   10.6067    0.0246   14.5898 C   0  0  0  0  0  0  0  0  0  0  0  0
   11.2320   -1.2030   15.2437 C   0  0  0  0  0  0  0  0  0  0  0  0
   12.0109   -2.1218   14.3078 C   0  0  0  0  0  0  0  0  0  0  0  0
   13.1535   -1.3382   13.6635 C   0  0  0  0  0  0  0  0  0  0  0  0
   12.1873   -0.6789   16.1796 O   0  0  0  0  0  0  0  0  0  0  0  0
   13.0873    0.2636   15.5513 C   0  0  0  0  0  0  0  0  0  0  0  0
   16.1208   -0.0694   14.0716 N   0  0  0  0  0  0  0  0  0  0  0  0
   17.2717   -0.4721   14.8249 C   0  0  0  0  0  0  0  0  0  0  0  0
   16.8894   -0.6835   16.2917 C   0  0  0  0  0  0  0  0  0  0  0  0
   15.9220   -1.8140   16.5690 C   0  0  0  0  0  0  0  0  0  0  0  0
   14.8219   -1.7994   17.4079 C   0  0  0  0  0  0  0  0  0  0  0  0
   14.1211   -3.0356   17.4297 C   0  0  0  0  0  0  0  0  0  0  0  0
   14.7432   -3.9836   16.6634 C   0  0  0  0  0  0  0  0  0  0  0  0
   16.1800   -3.3970   15.9667 S   0  0  0  0  0  0  0  0  0  0  0  0
   14.3405    0.5907   12.2827 H   0  0  0  0  0  0  0  0  0  0  0  0
   13.6754    2.0228   13.0319 H   0  0  0  0  0  0  0  0  0  0  0  0
   11.3752    0.3985   12.5984 H   0  0  0  0  0  0  0  0  0  0  0  0
   11.5370    1.7382   13.7045 H   0  0  0  0  0  0  0  0  0  0  0  0
    9.6528   -0.1604   14.1026 H   0  0  0  0  0  0  0  0  0  0  0  0
   10.3707    0.7618   15.3710 H   0  0  0  0  0  0  0  0  0  0  0  0
   10.4802   -1.7683   15.7939 H   0  0  0  0  0  0  0  0  0  0  0  0
   12.4357   -2.9468   14.8898 H   0  0  0  0  0  0  0  0  0  0  0  0
   11.3840   -2.5864   13.5496 H   0  0  0  0  0  0  0  0  0  0  0  0
   13.1725   -1.5056   12.5847 H   0  0  0  0  0  0  0  0  0  0  0  0
   14.0920   -1.7512   14.0415 H   0  0  0  0  0  0  0  0  0  0  0  0
   12.8027    1.2677   15.8908 H   0  0  0  0  0  0  0  0  0  0  0  0
   14.0819    0.0902   15.9423 H   0  0  0  0  0  0  0  0  0  0  0  0
   15.7000   -0.7094   13.4094 H   0  0  0  0  0  0  0  0  0  0  0  0
   18.0074    0.3357   14.7565 H   0  0  0  0  0  0  0  0  0  0  0  0
   17.6915   -1.3695   14.3622 H   0  0  0  0  0  0  0  0  0  0  0  0
   17.8055   -0.8822   16.8632 H   0  0  0  0  0  0  0  0  0  0  0  0
   16.4721    0.2470   16.6983 H   0  0  0  0  0  0  0  0  0  0  0  0
   14.5140   -0.9238   17.9667 H   0  0  0  0  0  0  0  0  0  0  0  0
   13.2117   -3.2361   17.9793 H   0  0  0  0  0  0  0  0  0  0  0  0
   14.4337   -5.0006   16.4923 H   0  0  0  0  0  0  0  0  0  0  0  0
  1  2  2  0
  2  3  1  0
  3  4  1  0
  4  5  1  0
  5  6  1  0
  6  7  1  0
  7  8  1  0
  8  9  1  0
  7 10  1  0
 10 11  1  0
  2 12  1  0
 12 13  1  0
 13 14  1  0
 14 15  1  0
 15 16  2  0
 16 17  1  0
 17 18  2  0
 18 19  1  0
  9  4  1  0
 19 15  1  0
 11  4  1  0
  3 20  1  0
  3 21  1  0
  5 22  1  0
  5 23  1  0
  6 24  1  0
  6 25  1  0
  7 26  1  0
  8 27  1  0
  8 28  1  0
  9 29  1  0
  9 30  1  0
 11 31  1  0
 11 32  1  0
 12 33  1  0
 13 34  1  0
 13 35  1  0
 14 36  1  0
 14 37  1  0
 16 38  1  0
 17 39  1  0
 18 40  1  0
M  END
>  <Energy>  (425) 
43.967346388014889

>  <compound_id>  (425) 
62091

>  <target_id>  (425) 
1

>  <reference_id>  (425) 
97

>  <inspiration_ids>  (425) 
[97, 98]

>  <energy_score>  (425) 
-30.982807492680934

>  <distance_score>  (425) 
2.872113483843613

>  <path>  (425) 
/opt/xchem-fragalysis-2/maxwin/BulkDock/SCRATCH/511021/C62091-P97/C62091-P97.minimised.mol

>  <scratch_subdir>  (425) 
/opt/xchem-fragalysis-2/maxwin/BulkDock/SCRATCH/511021/C62091-P97

>  <fragmenstein_runtime>  (425) 
10.734049797058105

>  <fragmenstein_outcome>  (425) 
too moved

>  <fragmenstein_mode>  (425) 
expansion

>  <fragmenstein_error>  (425) 


$$$$
C62091-P98
     RDKit          3D

 40 42  0  0  0  0  0  0  0  0999 V2000
   15.4698    2.0813   14.2265 O   0  0  0  0  0  0  0  0  0  0  0  0
   15.2671    1.0233   13.7831 C   0  0  0  0  0  0  0  0  0  0  0  0
   14.0147    0.6949   12.9881 C   0  0  0  0  0  0  0  0  0  0  0  0
   12.9472   -0.0389   13.8383 C   0  0  0  0  0  0  0  0  0  0  0  0
   11.5488    0.4968   13.4768 C   0  0  0  0  0  0  0  0  0  0  0  0
   10.5393   -0.0002   14.5103 C   0  0  0  0  0  0  0  0  0  0  0  0
   11.1230   -1.2082   15.2344 C   0  0  0  0  0  0  0  0  0  0  0  0
   11.8248   -2.2396   14.3574 C   0  0  0  0  0  0  0  0  0  0  0  0
   12.9472   -1.5632   13.5736 C   0  0  0  0  0  0  0  0  0  0  0  0
   12.1283   -0.6672   16.1040 O   0  0  0  0  0  0  0  0  0  0  0  0
   13.0643    0.1576   15.3709 C   0  0  0  0  0  0  0  0  0  0  0  0
   16.0605   -0.2919   13.9314 N   0  0  0  0  0  0  0  0  0  0  0  0
   17.2115   -0.6006   14.7300 C   0  0  0  0  0  0  0  0  0  0  0  0
   16.8162   -0.7164   16.2050 C   0  0  0  0  0  0  0  0  0  0  0  0
   15.8455   -1.8283   16.5449 C   0  0  0  0  0  0  0  0  0  0  0  0
   14.7666   -1.7686   17.4093 C   0  0  0  0  0  0  0  0  0  0  0  0
   14.0405   -2.9885   17.4773 C   0  0  0  0  0  0  0  0  0  0  0  0
   14.6120   -3.9652   16.7064 C   0  0  0  0  0  0  0  0  0  0  0  0
   16.0556   -3.4324   15.9793 S   0  0  0  0  0  0  0  0  0  0  0  0
   14.2832    0.1223   12.0922 H   0  0  0  0  0  0  0  0  0  0  0  0
   13.6289    1.6533   12.6170 H   0  0  0  0  0  0  0  0  0  0  0  0
   11.2605    0.1800   12.4740 H   0  0  0  0  0  0  0  0  0  0  0  0
   11.5281    1.5940   13.4692 H   0  0  0  0  0  0  0  0  0  0  0  0
    9.5584   -0.1786   14.0747 H   0  0  0  0  0  0  0  0  0  0  0  0
   10.3677    0.8042   15.2403 H   0  0  0  0  0  0  0  0  0  0  0  0
   10.3583   -1.6891   15.8421 H   0  0  0  0  0  0  0  0  0  0  0  0
   12.2619   -3.0161   14.9952 H   0  0  0  0  0  0  0  0  0  0  0  0
   11.1403   -2.7586   13.6892 H   0  0  0  0  0  0  0  0  0  0  0  0
   12.8386   -1.7792   12.5077 H   0  0  0  0  0  0  0  0  0  0  0  0
   13.8940   -2.0141   13.8789 H   0  0  0  0  0  0  0  0  0  0  0  0
   12.8671    1.2011   15.6475 H   0  0  0  0  0  0  0  0  0  0  0  0
   14.0573   -0.0649   15.7347 H   0  0  0  0  0  0  0  0  0  0  0  0
   15.5566   -1.0433   13.4789 H   0  0  0  0  0  0  0  0  0  0  0  0
   17.9237    0.2225   14.6126 H   0  0  0  0  0  0  0  0  0  0  0  0
   17.6659   -1.5158   14.3407 H   0  0  0  0  0  0  0  0  0  0  0  0
   17.7263   -0.8742   16.7980 H   0  0  0  0  0  0  0  0  0  0  0  0
   16.3912    0.2381   16.5423 H   0  0  0  0  0  0  0  0  0  0  0  0
   14.4862   -0.8703   17.9468 H   0  0  0  0  0  0  0  0  0  0  0  0
   13.1413   -3.1550   18.0544 H   0  0  0  0  0  0  0  0  0  0  0  0
   14.2611   -4.9728   16.5555 H   0  0  0  0  0  0  0  0  0  0  0  0
  1  2  2  0
  2  3  1  0
  3  4  1  0
  4  5  1  0
  5  6  1  0
  6  7  1  0
  7  8  1  0
  8  9  1  0
  7 10  1  0
 10 11  1  0
  2 12  1  0
 12 13  1  0
 13 14  1  0
 14 15  1  0
 15 16  2  0
 16 17  1  0
 17 18  2  0
 18 19  1  0
  9  4  1  0
 19 15  1  0
 11  4  1  0
  3 20  1  0
  3 21  1  0
  5 22  1  0
  5 23  1  0
  6 24  1  0
  6 25  1  0
  7 26  1  0
  8 27  1  0
  8 28  1  0
  9 29  1  0
  9 30  1  0
 11 31  1  0
 11 32  1  0
 12 33  1  0
 13 34  1  0
 13 35  1  0
 14 36  1  0
 14 37  1  0
 16 38  1  0
 17 39  1  0
 18 40  1  0
M  END
>  <Energy>  (426) 
44.055791045952503

>  <compound_id>  (426) 
62091

>  <target_id>  (426) 
1

>  <reference_id>  (426) 
98

>  <inspiration_ids>  (426) 
[97, 98]

>  <energy_score>  (426) 
-30.894362834742594

>  <distance_score>  (426) 
2.7867217562278093

>  <path>  (426) 
/opt/xchem-fragalysis-2/maxwin/BulkDock/SCRATCH/511021/C62091-P98/C62091-P98.minimised.mol

>  <scratch_subdir>  (426) 
/opt/xchem-fragalysis-2/maxwin/BulkDock/SCRATCH/511021/C62091-P98

>  <fragmenstein_runtime>  (426) 
12.269331693649292

>  <fragmenstein_outcome>  (426) 
too moved

>  <fragmenstein_mode>  (426) 
expansion

>  <fragmenstein_error>  (426) 


$$$$
C18939-P97
     RDKit          3D

 45 47  0  0  0  0  0  0  0  0999 V2000
   16.8881   -2.8249   13.4864 O   0  0  0  0  0  0  0  0  0  0  0  0
   16.9514   -2.3524   14.5500 C   0  0  0  0  0  0  0  0  0  0  0  0
   17.1125   -3.2068   15.8341 C   0  0  0  0  0  0  0  0  0  0  0  0
   15.9695   -3.1483   16.7519 N   0  0  0  0  0  0  0  0  0  0  0  0
   15.6727   -2.0301   17.5939 C   0  0  0  0  0  0  0  0  0  0  0  0
   14.7880   -2.6333   18.6536 C   0  0  0  0  0  0  0  0  0  0  0  0
   13.9909   -3.6772   17.8957 C   0  0  0  0  0  0  0  0  0  0  0  0
   15.0513   -4.1686   16.9469 C   0  0  0  0  0  0  0  0  0  0  0  0
   15.0929   -5.2877   16.4792 O   0  0  0  0  0  0  0  0  0  0  0  0
   16.8131   -0.8768   15.0027 N   0  0  0  0  0  0  0  0  0  0  0  0
   16.4732    0.3087   14.2477 C   0  0  0  0  0  0  0  0  0  0  0  0
   15.0974    0.8987   14.6919 C   0  0  0  0  0  0  0  0  0  0  0  0
   13.9493   -0.1126   14.6530 C   0  0  0  0  0  0  0  0  0  0  0  0
   12.9753   -0.3094   15.6177 C   0  0  0  0  0  0  0  0  0  0  0  0
   12.0866   -1.3750   15.3045 C   0  0  0  0  0  0  0  0  0  0  0  0
   12.3972   -1.9659   14.1061 C   0  0  0  0  0  0  0  0  0  0  0  0
   13.7160   -1.1925   13.3443 S   0  0  0  0  0  0  0  0  0  0  0  0
   14.6814    2.1801   14.0919 N   0  0  0  0  0  0  0  0  0  0  0  0
   15.5539    3.3080   14.4060 C   0  0  0  0  0  0  0  0  0  0  0  0
   14.9895    4.4035   13.5189 C   0  0  0  0  0  0  0  0  0  0  0  0
   14.4744    3.6719   12.2858 C   0  0  0  0  0  0  0  0  0  0  0  0
   14.5405    2.1881   12.6362 C   0  0  0  0  0  0  0  0  0  0  0  0
   17.2617   -4.2466   15.5225 H   0  0  0  0  0  0  0  0  0  0  0  0
   18.0108   -2.8858   16.3720 H   0  0  0  0  0  0  0  0  0  0  0  0
   15.1417   -1.2667   17.0279 H   0  0  0  0  0  0  0  0  0  0  0  0
   16.5877   -1.6148   18.0261 H   0  0  0  0  0  0  0  0  0  0  0  0
   15.4102   -3.1364   19.4072 H   0  0  0  0  0  0  0  0  0  0  0  0
   14.2188   -1.8752   19.1824 H   0  0  0  0  0  0  0  0  0  0  0  0
   13.1593   -3.2527   17.3298 H   0  0  0  0  0  0  0  0  0  0  0  0
   13.6418   -4.4767   18.5529 H   0  0  0  0  0  0  0  0  0  0  0  0
   17.0045   -0.8078   15.9905 H   0  0  0  0  0  0  0  0  0  0  0  0
   17.2802    1.0255   14.4230 H   0  0  0  0  0  0  0  0  0  0  0  0
   16.4776    0.0394   13.1873 H   0  0  0  0  0  0  0  0  0  0  0  0
   15.2197    1.1101   15.7667 H   0  0  0  0  0  0  0  0  0  0  0  0
   12.9173    0.2948   16.5126 H   0  0  0  0  0  0  0  0  0  0  0  0
   11.2572   -1.7010   15.9132 H   0  0  0  0  0  0  0  0  0  0  0  0
   11.8920   -2.7900   13.6205 H   0  0  0  0  0  0  0  0  0  0  0  0
   15.5087    3.5879   15.4631 H   0  0  0  0  0  0  0  0  0  0  0  0
   16.5985    3.1189   14.1346 H   0  0  0  0  0  0  0  0  0  0  0  0
   14.1576    4.9125   14.0209 H   0  0  0  0  0  0  0  0  0  0  0  0
   15.7410    5.1577   13.2658 H   0  0  0  0  0  0  0  0  0  0  0  0
   15.0916    3.8919   11.4081 H   0  0  0  0  0  0  0  0  0  0  0  0
   13.4482    3.9846   12.0628 H   0  0  0  0  0  0  0  0  0  0  0  0
   15.4030    1.7400   12.1304 H   0  0  0  0  0  0  0  0  0  0  0  0
   13.6334    1.6780   12.2993 H   0  0  0  0  0  0  0  0  0  0  0  0
  1  2  2  0
  2  3  1  0
  3  4  1  0
  4  5  1  0
  5  6  1  0
  6  7  1  0
  7  8  1  0
  8  9  2  0
  2 10  1  0
 10 11  1  0
 11 12  1  0
 12 13  1  0
 13 14  2  0
 14 15  1  0
 15 16  2  0
 16 17  1  0
 12 18  1  0
 18 19  1  0
 19 20  1  0
 20 21  1  0
 21 22  1  0
  8  4  1  0
 17 13  1  0
 22 18  1  0
  3 23  1  0
  3 24  1  0
  5 25  1  0
  5 26  1  0
  6 27  1  0
  6 28  1  0
  7 29  1  0
  7 30  1  0
 10 31  1  0
 11 32  1  0
 11 33  1  0
 12 34  1  0
 14 35  1  0
 15 36  1  0
 16 37  1  0
 19 38  1  0
 19 39  1  0
 20 40  1  0
 20 41  1  0
 21 42  1  0
 21 43  1  0
 22 44  1  0
 22 45  1  0
M  END
>  <Energy>  (427) 
60.035350727116352

>  <compound_id>  (427) 
18939

>  <target_id>  (427) 
1

>  <reference_id>  (427) 
97

>  <inspiration_ids>  (427) 
[97, 98]

>  <energy_score>  (427) 
-19.333239977221552

>  <distance_score>  (427) 
1.6885086078937102

>  <path>  (427) 
/opt/xchem-fragalysis-2/maxwin/BulkDock/SCRATCH/511021/C18939-P97/C18939-P97.minimised.mol

>  <scratch_subdir>  (427) 
/opt/xchem-fragalysis-2/maxwin/BulkDock/SCRATCH/511021/C18939-P97

>  <fragmenstein_runtime>  (427) 
3.868725538253784

>  <fragmenstein_outcome>  (427) 
too moved

>  <fragmenstein_mode>  (427) 
expansion

>  <fragmenstein_error>  (427) 


$$$$
C18939-P98
     RDKit          3D

 45 47  0  0  0  0  0  0  0  0999 V2000
   17.6888   -3.0153   14.8702 O   0  0  0  0  0  0  0  0  0  0  0  0
   17.1688   -2.4130   15.7254 C   0  0  0  0  0  0  0  0  0  0  0  0
   16.6820   -3.0656   17.0453 C   0  0  0  0  0  0  0  0  0  0  0  0
   15.2477   -3.3622   17.0376 N   0  0  0  0  0  0  0  0  0  0  0  0
   14.3086   -2.6293   16.2442 C   0  0  0  0  0  0  0  0  0  0  0  0
   12.9520   -3.2135   16.5310 C   0  0  0  0  0  0  0  0  0  0  0  0
   13.2247   -4.5129   17.2374 C   0  0  0  0  0  0  0  0  0  0  0  0
   14.6830   -4.4942   17.5747 C   0  0  0  0  0  0  0  0  0  0  0  0
   15.2385   -5.3764   18.2065 O   0  0  0  0  0  0  0  0  0  0  0  0
   16.7277   -0.9206   15.7837 N   0  0  0  0  0  0  0  0  0  0  0  0
   16.7522    0.1091   14.7618 C   0  0  0  0  0  0  0  0  0  0  0  0
   15.4668    0.9992   14.7541 C   0  0  0  0  0  0  0  0  0  0  0  0
   14.1777    0.2316   14.4484 C   0  0  0  0  0  0  0  0  0  0  0  0
   12.9804    0.3002   15.1459 C   0  0  0  0  0  0  0  0  0  0  0  0
   11.9918   -0.5953   14.6477 C   0  0  0  0  0  0  0  0  0  0  0  0
   12.4642   -1.3379   13.5932 C   0  0  0  0  0  0  0  0  0  0  0  0
   14.0317   -0.8471   13.1209 S   0  0  0  0  0  0  0  0  0  0  0  0
   15.5144    2.2454   13.9667 N   0  0  0  0  0  0  0  0  0  0  0  0
   16.3764    3.2782   14.5388 C   0  0  0  0  0  0  0  0  0  0  0  0
   16.4090    4.3293   13.4418 C   0  0  0  0  0  0  0  0  0  0  0  0
   16.2010    3.5527   12.1474 C   0  0  0  0  0  0  0  0  0  0  0  0
   15.9453    2.1122   12.5759 C   0  0  0  0  0  0  0  0  0  0  0  0
   17.2506   -3.9846   17.2224 H   0  0  0  0  0  0  0  0  0  0  0  0
   16.8798   -2.3920   17.8859 H   0  0  0  0  0  0  0  0  0  0  0  0
   14.3351   -1.5849   16.5500 H   0  0  0  0  0  0  0  0  0  0  0  0
   14.5785   -2.7559   15.1975 H   0  0  0  0  0  0  0  0  0  0  0  0
   12.3918   -2.5373   17.1742 H   0  0  0  0  0  0  0  0  0  0  0  0
   12.3495   -3.3620   15.6312 H   0  0  0  0  0  0  0  0  0  0  0  0
   13.0224   -5.3556   16.5795 H   0  0  0  0  0  0  0  0  0  0  0  0
   12.6570   -4.5972   18.1618 H   0  0  0  0  0  0  0  0  0  0  0  0
   16.2303   -0.7478   16.6493 H   0  0  0  0  0  0  0  0  0  0  0  0
   17.6353    0.7158   14.9832 H   0  0  0  0  0  0  0  0  0  0  0  0
   16.9236   -0.3822   13.7989 H   0  0  0  0  0  0  0  0  0  0  0  0
   15.3363    1.3183   15.8007 H   0  0  0  0  0  0  0  0  0  0  0  0
   12.8285    0.9694   15.9839 H   0  0  0  0  0  0  0  0  0  0  0  0
   10.9876   -0.7041   15.0371 H   0  0  0  0  0  0  0  0  0  0  0  0
   11.9437   -2.1062   13.0398 H   0  0  0  0  0  0  0  0  0  0  0  0
   15.9711    3.6880   15.4694 H   0  0  0  0  0  0  0  0  0  0  0  0
   17.3925    2.9151   14.7297 H   0  0  0  0  0  0  0  0  0  0  0  0
   15.5943    5.0513   13.5747 H   0  0  0  0  0  0  0  0  0  0  0  0
   17.3520    4.8848   13.4382 H   0  0  0  0  0  0  0  0  0  0  0  0
   17.0762    3.6211   11.4930 H   0  0  0  0  0  0  0  0  0  0  0  0
   15.3414    3.9597   11.6024 H   0  0  0  0  0  0  0  0  0  0  0  0
   16.8756    1.5408   12.4805 H   0  0  0  0  0  0  0  0  0  0  0  0
   15.1858    1.6546   11.9365 H   0  0  0  0  0  0  0  0  0  0  0  0
  1  2  2  0
  2  3  1  0
  3  4  1  0
  4  5  1  0
  5  6  1  0
  6  7  1  0
  7  8  1  0
  8  9  2  0
  2 10  1  0
 10 11  1  0
 11 12  1  0
 12 13  1  0
 13 14  2  0
 14 15  1  0
 15 16  2  0
 16 17  1  0
 12 18  1  0
 18 19  1  0
 19 20  1  0
 20 21  1  0
 21 22  1  0
  8  4  1  0
 17 13  1  0
 22 18  1  0
  3 23  1  0
  3 24  1  0
  5 25  1  0
  5 26  1  0
  6 27  1  0
  6 28  1  0
  7 29  1  0
  7 30  1  0
 10 31  1  0
 11 32  1  0
 11 33  1  0
 12 34  1  0
 14 35  1  0
 15 36  1  0
 16 37  1  0
 19 38  1  0
 19 39  1  0
 20 40  1  0
 20 41  1  0
 21 42  1  0
 21 43  1  0
 22 44  1  0
 22 45  1  0
M  END
>  <Energy>  (428) 
62.958592185911563

>  <compound_id>  (428) 
18939

>  <target_id>  (428) 
1

>  <reference_id>  (428) 
98

>  <inspiration_ids>  (428) 
[97, 98]

>  <energy_score>  (428) 
-16.409998518427557

>  <distance_score>  (428) 
1.8622020018110073

>  <path>  (428) 
/opt/xchem-fragalysis-2/maxwin/BulkDock/SCRATCH/511021/C18939-P98/C18939-P98.minimised.mol

>  <scratch_subdir>  (428) 
/opt/xchem-fragalysis-2/maxwin/BulkDock/SCRATCH/511021/C18939-P98

>  <fragmenstein_runtime>  (428) 
4.317698955535889

>  <fragmenstein_outcome>  (428) 
too moved

>  <fragmenstein_mode>  (428) 
expansion

>  <fragmenstein_error>  (428) 


$$$$
C62092-P97
     RDKit          3D

 41 42  0  0  0  0  0  0  0  0999 V2000
   16.4253   -1.4495   11.2970 C   0  0  0  0  0  0  0  0  0  0  0  0
   15.4928   -0.3335   11.7141 C   0  0  0  0  0  0  0  0  0  0  0  0
   14.6367    0.0709   11.0337 O   0  0  0  0  0  0  0  0  0  0  0  0
   15.8949    0.0549   13.1574 N   0  0  0  0  0  0  0  0  0  0  0  0
   15.3864    1.0856   14.0239 C   0  0  0  0  0  0  0  0  0  0  0  0
   13.8904    0.9606   14.3166 C   0  0  0  0  0  0  0  0  0  0  0  0
   13.4498   -0.3446   14.9204 C   0  0  0  0  0  0  0  0  0  0  0  0
   12.4084   -1.1677   14.5361 C   0  0  0  0  0  0  0  0  0  0  0  0
   12.3192   -2.3616   15.3174 C   0  0  0  0  0  0  0  0  0  0  0  0
   13.3182   -2.4215   16.2640 C   0  0  0  0  0  0  0  0  0  0  0  0
   13.9675   -3.7016   17.3312 S   0  0  0  0  0  0  0  0  0  0  0  0
   14.0378   -3.1338   18.6555 O   0  0  0  0  0  0  0  0  0  0  0  0
   13.2346   -4.8962   17.0123 O   0  0  0  0  0  0  0  0  0  0  0  0
   15.5145   -3.8078   16.8051 N   0  0  0  0  0  0  0  0  0  0  0  0
   16.2800   -4.9949   16.1440 C   0  0  0  0  0  0  0  0  0  0  0  0
   15.9431   -6.0974   15.9474 O   0  0  0  0  0  0  0  0  0  0  0  0
   17.6250   -4.5191   15.6222 C   0  0  0  0  0  0  0  0  0  0  0  0
   18.5237   -3.9442   16.7080 C   0  0  0  0  0  0  0  0  0  0  0  0
   18.5071   -2.4348   16.5621 C   0  0  0  0  0  0  0  0  0  0  0  0
   18.0023   -2.2196   15.1643 C   0  0  0  0  0  0  0  0  0  0  0  0
   18.0003   -1.1342   14.5957 O   0  0  0  0  0  0  0  0  0  0  0  0
   17.4364   -3.4590   14.5424 C   0  0  0  0  0  0  0  0  0  0  0  0
   14.2231   -0.9620   16.2986 S   0  0  0  0  0  0  0  0  0  0  0  0
   16.1932   -2.3530   11.8661 H   0  0  0  0  0  0  0  0  0  0  0  0
   17.4675   -1.1593   11.4554 H   0  0  0  0  0  0  0  0  0  0  0  0
   16.2865   -1.6572   10.2320 H   0  0  0  0  0  0  0  0  0  0  0  0
   16.7487   -0.4422   13.4196 H   0  0  0  0  0  0  0  0  0  0  0  0
   15.9792    1.0649   14.9438 H   0  0  0  0  0  0  0  0  0  0  0  0
   15.5750    2.0430   13.5266 H   0  0  0  0  0  0  0  0  0  0  0  0
   13.5904    1.7759   14.9873 H   0  0  0  0  0  0  0  0  0  0  0  0
   13.3345    1.1142   13.3823 H   0  0  0  0  0  0  0  0  0  0  0  0
   11.7508   -0.9455   13.7017 H   0  0  0  0  0  0  0  0  0  0  0  0
   11.6169   -3.1680   15.1350 H   0  0  0  0  0  0  0  0  0  0  0  0
   16.0715   -2.9702   16.7417 H   0  0  0  0  0  0  0  0  0  0  0  0
   18.1095   -5.4028   15.1851 H   0  0  0  0  0  0  0  0  0  0  0  0
   18.2394   -4.2534   17.7196 H   0  0  0  0  0  0  0  0  0  0  0  0
   19.5494   -4.3005   16.5472 H   0  0  0  0  0  0  0  0  0  0  0  0
   17.8255   -1.9625   17.2740 H   0  0  0  0  0  0  0  0  0  0  0  0
   19.5084   -2.0112   16.6759 H   0  0  0  0  0  0  0  0  0  0  0  0
   16.3951   -3.2914   14.2575 H   0  0  0  0  0  0  0  0  0  0  0  0
   18.0345   -3.6975   13.6574 H   0  0  0  0  0  0  0  0  0  0  0  0
  1  2  1  0
  2  3  2  0
  2  4  1  0
  4  5  1  0
  5  6  1  0
  6  7  1  0
  7  8  2  0
  8  9  1  0
  9 10  2  0
 10 11  1  0
 11 12  2  0
 11 13  2  0
 11 14  1  0
 14 15  1  0
 15 16  2  0
 15 17  1  0
 17 18  1  0
 18 19  1  0
 19 20  1  0
 20 21  2  0
 20 22  1  0
 10 23  1  0
 23  7  1  0
 22 17  1  0
  1 24  1  0
  1 25  1  0
  1 26  1  0
  4 27  1  0
  5 28  1  0
  5 29  1  0
  6 30  1  0
  6 31  1  0
  8 32  1  0
  9 33  1  0
 14 34  1  0
 17 35  1  0
 18 36  1  0
 18 37  1  0
 19 38  1  0
 19 39  1  0
 22 40  1  0
 22 41  1  0
M  END
>  <Energy>  (429) 
-79.250468299927121

>  <compound_id>  (429) 
62092

>  <target_id>  (429) 
1

>  <reference_id>  (429) 
97

>  <inspiration_ids>  (429) 
[97, 98]

>  <energy_score>  (429) 
-20.07856744116262

>  <distance_score>  (429) 
2.6192351174312347

>  <path>  (429) 
/opt/xchem-fragalysis-2/maxwin/BulkDock/SCRATCH/511021/C62092-P97/C62092-P97.minimised.mol

>  <scratch_subdir>  (429) 
/opt/xchem-fragalysis-2/maxwin/BulkDock/SCRATCH/511021/C62092-P97

>  <fragmenstein_runtime>  (429) 
3.555105209350586

>  <fragmenstein_outcome>  (429) 
too moved

>  <fragmenstein_mode>  (429) 
expansion

>  <fragmenstein_error>  (429) 


$$$$
C62092-P98
     RDKit          3D

 41 42  0  0  0  0  0  0  0  0999 V2000
   16.2193   -1.8695   11.0121 C   0  0  0  0  0  0  0  0  0  0  0  0
   15.9951   -0.4122   11.3483 C   0  0  0  0  0  0  0  0  0  0  0  0
   16.0814    0.4500   10.5691 O   0  0  0  0  0  0  0  0  0  0  0  0
   15.6308   -0.3723   12.8501 N   0  0  0  0  0  0  0  0  0  0  0  0
   15.3900    0.7480   13.7260 C   0  0  0  0  0  0  0  0  0  0  0  0
   13.9370    0.8307   14.1981 C   0  0  0  0  0  0  0  0  0  0  0  0
   13.4285   -0.4325   14.8379 C   0  0  0  0  0  0  0  0  0  0  0  0
   12.3926   -1.2581   14.4467 C   0  0  0  0  0  0  0  0  0  0  0  0
   12.2890   -2.4387   15.2483 C   0  0  0  0  0  0  0  0  0  0  0  0
   13.2707   -2.4832   16.2145 C   0  0  0  0  0  0  0  0  0  0  0  0
   13.9022   -3.7402   17.3173 S   0  0  0  0  0  0  0  0  0  0  0  0
   13.8026   -3.1957   18.6486 O   0  0  0  0  0  0  0  0  0  0  0  0
   13.2948   -4.9771   16.9099 O   0  0  0  0  0  0  0  0  0  0  0  0
   15.4977   -3.7571   16.9568 N   0  0  0  0  0  0  0  0  0  0  0  0
   16.3536   -4.8180   16.1965 C   0  0  0  0  0  0  0  0  0  0  0  0
   16.0607   -5.8721   15.7832 O   0  0  0  0  0  0  0  0  0  0  0  0
   17.7419   -4.2729   15.9071 C   0  0  0  0  0  0  0  0  0  0  0  0
   18.5451   -3.9648   17.1586 C   0  0  0  0  0  0  0  0  0  0  0  0
   18.5033   -2.4644   17.3650 C   0  0  0  0  0  0  0  0  0  0  0  0
   18.0540   -1.9291   16.0351 C   0  0  0  0  0  0  0  0  0  0  0  0
   17.9789   -0.7350   15.7806 O   0  0  0  0  0  0  0  0  0  0  0  0
   17.6585   -3.0042   15.0647 C   0  0  0  0  0  0  0  0  0  0  0  0
   14.1483   -1.0073   16.2635 S   0  0  0  0  0  0  0  0  0  0  0  0
   16.8374   -2.3547   11.7728 H   0  0  0  0  0  0  0  0  0  0  0  0
   16.7513   -1.9363   10.0595 H   0  0  0  0  0  0  0  0  0  0  0  0
   15.2551   -2.3780   10.9328 H   0  0  0  0  0  0  0  0  0  0  0  0
   15.5685   -1.3176   13.2083 H   0  0  0  0  0  0  0  0  0  0  0  0
   16.0745    0.6496   14.5727 H   0  0  0  0  0  0  0  0  0  0  0  0
   15.6550    1.6630   13.1862 H   0  0  0  0  0  0  0  0  0  0  0  0
   13.2998    1.0619   13.3342 H   0  0  0  0  0  0  0  0  0  0  0  0
   13.8267    1.6677   14.8984 H   0  0  0  0  0  0  0  0  0  0  0  0
   11.7586   -1.0567   13.5890 H   0  0  0  0  0  0  0  0  0  0  0  0
   11.5946   -3.2516   15.0649 H   0  0  0  0  0  0  0  0  0  0  0  0
   16.0862   -2.9893   17.2409 H   0  0  0  0  0  0  0  0  0  0  0  0
   18.2573   -5.0544   15.3320 H   0  0  0  0  0  0  0  0  0  0  0  0
   19.5876   -4.2695   17.0009 H   0  0  0  0  0  0  0  0  0  0  0  0
   18.1907   -4.5017   18.0450 H   0  0  0  0  0  0  0  0  0  0  0  0
   17.7846   -2.1792   18.1376 H   0  0  0  0  0  0  0  0  0  0  0  0
   19.4903   -2.0689   17.6192 H   0  0  0  0  0  0  0  0  0  0  0  0
   16.6659   -2.8114   14.6518 H   0  0  0  0  0  0  0  0  0  0  0  0
   18.4000   -3.0239   14.2599 H   0  0  0  0  0  0  0  0  0  0  0  0
  1  2  1  0
  2  3  2  0
  2  4  1  0
  4  5  1  0
  5  6  1  0
  6  7  1  0
  7  8  2  0
  8  9  1  0
  9 10  2  0
 10 11  1  0
 11 12  2  0
 11 13  2  0
 11 14  1  0
 14 15  1  0
 15 16  2  0
 15 17  1  0
 17 18  1  0
 18 19  1  0
 19 20  1  0
 20 21  2  0
 20 22  1  0
 10 23  1  0
 23  7  1  0
 22 17  1  0
  1 24  1  0
  1 25  1  0
  1 26  1  0
  4 27  1  0
  5 28  1  0
  5 29  1  0
  6 30  1  0
  6 31  1  0
  8 32  1  0
  9 33  1  0
 14 34  1  0
 17 35  1  0
 18 36  1  0
 18 37  1  0
 19 38  1  0
 19 39  1  0
 22 40  1  0
 22 41  1  0
M  END
>  <Energy>  (430) 
-73.932208766680787

>  <compound_id>  (430) 
62092

>  <target_id>  (430) 
1

>  <reference_id>  (430) 
98

>  <inspiration_ids>  (430) 
[97, 98]

>  <energy_score>  (430) 
-14.760307907918445

>  <distance_score>  (430) 
2.6495547220637934

>  <path>  (430) 
/opt/xchem-fragalysis-2/maxwin/BulkDock/SCRATCH/511021/C62092-P98/C62092-P98.minimised.mol

>  <scratch_subdir>  (430) 
/opt/xchem-fragalysis-2/maxwin/BulkDock/SCRATCH/511021/C62092-P98

>  <fragmenstein_runtime>  (430) 
3.4560048580169678

>  <fragmenstein_outcome>  (430) 
too moved

>  <fragmenstein_mode>  (430) 
expansion

>  <fragmenstein_error>  (430) 


$$$$
C62093-P97
     RDKit          3D

 31 32  0  0  0  0  0  0  0  0999 V2000
   16.1950   -2.8471   15.0976 O   0  0  0  0  0  0  0  0  0  0  0  0
   16.0734   -1.9991   15.8904 C   0  0  0  0  0  0  0  0  0  0  0  0
   15.6920   -2.2920   17.3569 C   0  0  0  0  0  0  0  0  0  0  0  0
   16.3136   -3.5355   17.7673 N   0  0  0  0  0  0  0  0  0  0  0  0
   17.7469   -3.6261   17.7066 C   0  0  0  0  0  0  0  0  0  0  0  0
   18.2021   -5.2463   18.2943 S   0  0  0  0  0  0  0  0  0  0  0  0
   16.5506   -5.9101   18.0360 C   0  0  0  0  0  0  0  0  0  0  0  0
   15.6169   -4.7285   17.8486 C   0  0  0  0  0  0  0  0  0  0  0  0
   14.3978   -4.8475   17.7964 O   0  0  0  0  0  0  0  0  0  0  0  0
   16.1975   -0.4603   15.7424 N   0  0  0  0  0  0  0  0  0  0  0  0
   16.4023    0.3531   14.5709 C   0  0  0  0  0  0  0  0  0  0  0  0
   15.1208    1.0635   14.1175 C   0  0  0  0  0  0  0  0  0  0  0  0
   13.8641    0.3159   14.4537 C   0  0  0  0  0  0  0  0  0  0  0  0
   12.8909    0.6810   15.3615 C   0  0  0  0  0  0  0  0  0  0  0  0
   11.9666   -0.3670   15.6038 C   0  0  0  0  0  0  0  0  0  0  0  0
   12.3106   -1.4943   14.9128 C   0  0  0  0  0  0  0  0  0  0  0  0
   11.5503   -3.1777   15.3000 Br  0  0  0  0  0  0  0  0  0  0  0  0
   13.5033   -1.2051   13.7500 S   0  0  0  0  0  0  0  0  0  0  0  0
   14.6020   -2.3576   17.4256 H   0  0  0  0  0  0  0  0  0  0  0  0
   16.0502   -1.5097   18.0319 H   0  0  0  0  0  0  0  0  0  0  0  0
   18.0994   -3.5113   16.6787 H   0  0  0  0  0  0  0  0  0  0  0  0
   18.1903   -2.8469   18.3332 H   0  0  0  0  0  0  0  0  0  0  0  0
   16.5577   -6.5195   17.1311 H   0  0  0  0  0  0  0  0  0  0  0  0
   16.2401   -6.5003   18.9011 H   0  0  0  0  0  0  0  0  0  0  0  0
   16.1114   -0.0248   16.6522 H   0  0  0  0  0  0  0  0  0  0  0  0
   16.7504   -0.3143   13.7748 H   0  0  0  0  0  0  0  0  0  0  0  0
   17.1967    1.0758   14.7799 H   0  0  0  0  0  0  0  0  0  0  0  0
   15.0806    2.0410   14.6167 H   0  0  0  0  0  0  0  0  0  0  0  0
   15.1700    1.2767   13.0431 H   0  0  0  0  0  0  0  0  0  0  0  0
   12.8800    1.6354   15.8741 H   0  0  0  0  0  0  0  0  0  0  0  0
   11.1584   -0.3134   16.3139 H   0  0  0  0  0  0  0  0  0  0  0  0
  1  2  2  0
  2  3  1  0
  3  4  1  0
  4  5  1  0
  5  6  1  0
  6  7  1  0
  7  8  1  0
  8  9  2  0
  2 10  1  0
 10 11  1  0
 11 12  1  0
 12 13  1  0
 13 14  2  0
 14 15  1  0
 15 16  2  0
 16 17  1  0
 16 18  1  0
  8  4  1  0
 18 13  1  0
  3 19  1  0
  3 20  1  0
  5 21  1  0
  5 22  1  0
  7 23  1  0
  7 24  1  0
 10 25  1  0
 11 26  1  0
 11 27  1  0
 12 28  1  0
 12 29  1  0
 14 30  1  0
 15 31  1  0
M  END
>  <Energy>  (431) 
32.47979510073845

>  <compound_id>  (431) 
62093

>  <target_id>  (431) 
1

>  <reference_id>  (431) 
97

>  <inspiration_ids>  (431) 
[97, 98]

>  <energy_score>  (431) 
-23.283707007770317

>  <distance_score>  (431) 
2.2884816214544546

>  <path>  (431) 
/opt/xchem-fragalysis-2/maxwin/BulkDock/SCRATCH/511021/C62093-P97/C62093-P97.minimised.mol

>  <scratch_subdir>  (431) 
/opt/xchem-fragalysis-2/maxwin/BulkDock/SCRATCH/511021/C62093-P97

>  <fragmenstein_runtime>  (431) 
2.401116371154785

>  <fragmenstein_outcome>  (431) 
too moved

>  <fragmenstein_mode>  (431) 
expansion

>  <fragmenstein_error>  (431) 


$$$$
C62093-P98
     RDKit          3D

 31 32  0  0  0  0  0  0  0  0999 V2000
   17.7984   -2.6015   14.0550 O   0  0  0  0  0  0  0  0  0  0  0  0
   17.0899   -2.5631   14.9813 C   0  0  0  0  0  0  0  0  0  0  0  0
   16.4347   -3.8169   15.6063 C   0  0  0  0  0  0  0  0  0  0  0  0
   16.3493   -3.7891   17.0615 N   0  0  0  0  0  0  0  0  0  0  0  0
   17.5832   -3.6625   17.7831 C   0  0  0  0  0  0  0  0  0  0  0  0
   17.2006   -3.7981   19.5174 S   0  0  0  0  0  0  0  0  0  0  0  0
   15.5462   -4.4516   19.2354 C   0  0  0  0  0  0  0  0  0  0  0  0
   15.3136   -4.4185   17.7429 C   0  0  0  0  0  0  0  0  0  0  0  0
   14.3185   -4.9122   17.2281 O   0  0  0  0  0  0  0  0  0  0  0  0
   16.5241   -1.3499   15.7635 N   0  0  0  0  0  0  0  0  0  0  0  0
   16.6383    0.0664   15.5073 C   0  0  0  0  0  0  0  0  0  0  0  0
   15.6525    0.5317   14.4213 C   0  0  0  0  0  0  0  0  0  0  0  0
   14.2701    0.0180   14.6946 C   0  0  0  0  0  0  0  0  0  0  0  0
   13.3446    0.4734   15.6100 C   0  0  0  0  0  0  0  0  0  0  0  0
   12.2694   -0.4428   15.7749 C   0  0  0  0  0  0  0  0  0  0  0  0
   12.4512   -1.5587   15.0065 C   0  0  0  0  0  0  0  0  0  0  0  0
   11.4500   -3.1391   15.2383 Br  0  0  0  0  0  0  0  0  0  0  0  0
   13.6952   -1.3782   13.8811 S   0  0  0  0  0  0  0  0  0  0  0  0
   16.9936   -4.7104   15.3098 H   0  0  0  0  0  0  0  0  0  0  0  0
   15.4250   -3.8805   15.2135 H   0  0  0  0  0  0  0  0  0  0  0  0
   18.2533   -4.4781   17.4931 H   0  0  0  0  0  0  0  0  0  0  0  0
   18.0640   -2.7048   17.5706 H   0  0  0  0  0  0  0  0  0  0  0  0
   15.4866   -5.4832   19.5912 H   0  0  0  0  0  0  0  0  0  0  0  0
   14.8000   -3.8316   19.7383 H   0  0  0  0  0  0  0  0  0  0  0  0
   15.8685   -1.6764   16.4696 H   0  0  0  0  0  0  0  0  0  0  0  0
   17.6640    0.2766   15.1891 H   0  0  0  0  0  0  0  0  0  0  0  0
   16.4472    0.5822   16.4540 H   0  0  0  0  0  0  0  0  0  0  0  0
   15.6454    1.6271   14.3786 H   0  0  0  0  0  0  0  0  0  0  0  0
   16.0006    0.1812   13.4414 H   0  0  0  0  0  0  0  0  0  0  0  0
   13.4726    1.3783   16.1921 H   0  0  0  0  0  0  0  0  0  0  0  0
   11.4694   -0.3199   16.4866 H   0  0  0  0  0  0  0  0  0  0  0  0
  1  2  2  0
  2  3  1  0
  3  4  1  0
  4  5  1  0
  5  6  1  0
  6  7  1  0
  7  8  1  0
  8  9  2  0
  2 10  1  0
 10 11  1  0
 11 12  1  0
 12 13  1  0
 13 14  2  0
 14 15  1  0
 15 16  2  0
 16 17  1  0
 16 18  1  0
  8  4  1  0
 18 13  1  0
  3 19  1  0
  3 20  1  0
  5 21  1  0
  5 22  1  0
  7 23  1  0
  7 24  1  0
 10 25  1  0
 11 26  1  0
 11 27  1  0
 12 28  1  0
 12 29  1  0
 14 30  1  0
 15 31  1  0
M  END
>  <Energy>  (432) 
24.124112815125034

>  <compound_id>  (432) 
62093

>  <target_id>  (432) 
1

>  <reference_id>  (432) 
98

>  <inspiration_ids>  (432) 
[97, 98]

>  <energy_score>  (432) 
-31.639389293383573

>  <distance_score>  (432) 
2.0801558916401093

>  <path>  (432) 
/opt/xchem-fragalysis-2/maxwin/BulkDock/SCRATCH/511021/C62093-P98/C62093-P98.minimised.mol

>  <scratch_subdir>  (432) 
/opt/xchem-fragalysis-2/maxwin/BulkDock/SCRATCH/511021/C62093-P98

>  <fragmenstein_runtime>  (432) 
2.0749518871307373

>  <fragmenstein_outcome>  (432) 
too moved

>  <fragmenstein_mode>  (432) 
expansion

>  <fragmenstein_error>  (432) 


$$$$
C62094-P97
     RDKit          3D

 31 32  0  0  0  0  0  0  0  0999 V2000
   18.0149   -2.2965   14.2098 O   0  0  0  0  0  0  0  0  0  0  0  0
   17.2149   -2.3596   15.0566 C   0  0  0  0  0  0  0  0  0  0  0  0
   16.5999   -3.6886   15.5455 C   0  0  0  0  0  0  0  0  0  0  0  0
   16.3914   -3.7634   16.9863 N   0  0  0  0  0  0  0  0  0  0  0  0
   17.5272   -3.5998   17.8660 C   0  0  0  0  0  0  0  0  0  0  0  0
   17.3718   -4.5845   19.0006 C   0  0  0  0  0  0  0  0  0  0  0  0
   15.5850   -4.5977   19.2674 S   0  0  0  0  0  0  0  0  0  0  0  0
   15.2716   -4.3227   17.5623 C   0  0  0  0  0  0  0  0  0  0  0  0
   14.2266   -4.6501   17.0367 O   0  0  0  0  0  0  0  0  0  0  0  0
   16.4821   -1.2358   15.8305 N   0  0  0  0  0  0  0  0  0  0  0  0
   16.5133    0.1953   15.6557 C   0  0  0  0  0  0  0  0  0  0  0  0
   15.5739    0.6404   14.5218 C   0  0  0  0  0  0  0  0  0  0  0  0
   14.1934    0.0859   14.7189 C   0  0  0  0  0  0  0  0  0  0  0  0
   13.1742    0.5637   15.5155 C   0  0  0  0  0  0  0  0  0  0  0  0
   12.1145   -0.3775   15.6443 C   0  0  0  0  0  0  0  0  0  0  0  0
   12.4043   -1.5361   14.9793 C   0  0  0  0  0  0  0  0  0  0  0  0
   11.4417   -3.1372   15.2336 Br  0  0  0  0  0  0  0  0  0  0  0  0
   13.7368   -1.3809   13.9567 S   0  0  0  0  0  0  0  0  0  0  0  0
   17.2573   -4.5159   15.2583 H   0  0  0  0  0  0  0  0  0  0  0  0
   15.6450   -3.8097   15.0436 H   0  0  0  0  0  0  0  0  0  0  0  0
   18.4645   -3.7777   17.3278 H   0  0  0  0  0  0  0  0  0  0  0  0
   17.5306   -2.5652   18.2287 H   0  0  0  0  0  0  0  0  0  0  0  0
   17.6916   -5.5878   18.7013 H   0  0  0  0  0  0  0  0  0  0  0  0
   17.9218   -4.2837   19.8957 H   0  0  0  0  0  0  0  0  0  0  0  0
   15.9070   -1.6463   16.5616 H   0  0  0  0  0  0  0  0  0  0  0  0
   16.2208    0.6476   16.6089 H   0  0  0  0  0  0  0  0  0  0  0  0
   17.5407    0.4900   15.4213 H   0  0  0  0  0  0  0  0  0  0  0  0
   15.5353    1.7356   14.4900 H   0  0  0  0  0  0  0  0  0  0  0  0
   15.9804    0.3112   13.5571 H   0  0  0  0  0  0  0  0  0  0  0  0
   13.2181    1.5106   16.0401 H   0  0  0  0  0  0  0  0  0  0  0  0
   11.2449   -0.2361   16.2667 H   0  0  0  0  0  0  0  0  0  0  0  0
  1  2  2  0
  2  3  1  0
  3  4  1  0
  4  5  1  0
  5  6  1  0
  6  7  1  0
  7  8  1  0
  8  9  2  0
  2 10  1  0
 10 11  1  0
 11 12  1  0
 12 13  1  0
 13 14  2  0
 14 15  1  0
 15 16  2  0
 16 17  1  0
 16 18  1  0
  8  4  1  0
 18 13  1  0
  3 19  1  0
  3 20  1  0
  5 21  1  0
  5 22  1  0
  6 23  1  0
  6 24  1  0
 10 25  1  0
 11 26  1  0
 11 27  1  0
 12 28  1  0
 12 29  1  0
 14 30  1  0
 15 31  1  0
M  END
>  <Energy>  (433) 
9.4437638095684058

>  <compound_id>  (433) 
62094

>  <target_id>  (433) 
1

>  <reference_id>  (433) 
97

>  <inspiration_ids>  (433) 
[97, 98]

>  <energy_score>  (433) 
-19.54102353100879

>  <distance_score>  (433) 
2.115616988078864

>  <path>  (433) 
/opt/xchem-fragalysis-2/maxwin/BulkDock/SCRATCH/511021/C62094-P97/C62094-P97.minimised.mol

>  <scratch_subdir>  (433) 
/opt/xchem-fragalysis-2/maxwin/BulkDock/SCRATCH/511021/C62094-P97

>  <fragmenstein_runtime>  (433) 
2.084184408187866

>  <fragmenstein_outcome>  (433) 
too moved

>  <fragmenstein_mode>  (433) 
expansion

>  <fragmenstein_error>  (433) 


$$$$
C62094-P98
     RDKit          3D

 31 32  0  0  0  0  0  0  0  0999 V2000
   17.9493   -2.4119   14.1586 O   0  0  0  0  0  0  0  0  0  0  0  0
   17.1705   -2.4273   15.0270 C   0  0  0  0  0  0  0  0  0  0  0  0
   16.5266   -3.7220   15.5696 C   0  0  0  0  0  0  0  0  0  0  0  0
   16.3511   -3.7541   17.0164 N   0  0  0  0  0  0  0  0  0  0  0  0
   17.5028   -3.5359   17.8657 C   0  0  0  0  0  0  0  0  0  0  0  0
   17.4483   -4.5460   18.9873 C   0  0  0  0  0  0  0  0  0  0  0  0
   15.6762   -4.6751   19.3093 S   0  0  0  0  0  0  0  0  0  0  0  0
   15.2974   -4.4150   17.6153 C   0  0  0  0  0  0  0  0  0  0  0  0
   14.2813   -4.8466   17.1072 O   0  0  0  0  0  0  0  0  0  0  0  0
   16.4934   -1.2607   15.7885 N   0  0  0  0  0  0  0  0  0  0  0  0
   16.5640    0.1640   15.5737 C   0  0  0  0  0  0  0  0  0  0  0  0
   15.5933    0.6135   14.4682 C   0  0  0  0  0  0  0  0  0  0  0  0
   14.2169    0.0691   14.7127 C   0  0  0  0  0  0  0  0  0  0  0  0
   13.2568    0.5170   15.5955 C   0  0  0  0  0  0  0  0  0  0  0  0
   12.1985   -0.4208   15.7472 C   0  0  0  0  0  0  0  0  0  0  0  0
   12.4265   -1.5445   15.0029 C   0  0  0  0  0  0  0  0  0  0  0  0
   11.4533   -3.1427   15.2328 Br  0  0  0  0  0  0  0  0  0  0  0  0
   13.6972   -1.3544   13.9091 S   0  0  0  0  0  0  0  0  0  0  0  0
   17.1473   -4.5789   15.2875 H   0  0  0  0  0  0  0  0  0  0  0  0
   15.5524   -3.8238   15.1014 H   0  0  0  0  0  0  0  0  0  0  0  0
   18.4331   -3.6425   17.2975 H   0  0  0  0  0  0  0  0  0  0  0  0
   17.4513   -2.5097   18.2486 H   0  0  0  0  0  0  0  0  0  0  0  0
   17.8209   -5.5221   18.6604 H   0  0  0  0  0  0  0  0  0  0  0  0
   18.0073   -4.2243   19.8695 H   0  0  0  0  0  0  0  0  0  0  0  0
   15.9253   -1.6334   16.5453 H   0  0  0  0  0  0  0  0  0  0  0  0
   16.3247    0.6488   16.5258 H   0  0  0  0  0  0  0  0  0  0  0  0
   17.5900    0.4199   15.2921 H   0  0  0  0  0  0  0  0  0  0  0  0
   15.5629    1.7086   14.4312 H   0  0  0  0  0  0  0  0  0  0  0  0
   15.9679    0.2753   13.4937 H   0  0  0  0  0  0  0  0  0  0  0  0
   13.3479    1.4339   16.1654 H   0  0  0  0  0  0  0  0  0  0  0  0
   11.3767   -0.3045   16.4352 H   0  0  0  0  0  0  0  0  0  0  0  0
  1  2  2  0
  2  3  1  0
  3  4  1  0
  4  5  1  0
  5  6  1  0
  6  7  1  0
  7  8  1  0
  8  9  2  0
  2 10  1  0
 10 11  1  0
 11 12  1  0
 12 13  1  0
 13 14  2  0
 14 15  1  0
 15 16  2  0
 16 17  1  0
 16 18  1  0
  8  4  1  0
 18 13  1  0
  3 19  1  0
  3 20  1  0
  5 21  1  0
  5 22  1  0
  6 23  1  0
  6 24  1  0
 10 25  1  0
 11 26  1  0
 11 27  1  0
 12 28  1  0
 12 29  1  0
 14 30  1  0
 15 31  1  0
M  END
>  <Energy>  (434) 
10.131478414663251

>  <compound_id>  (434) 
62094

>  <target_id>  (434) 
1

>  <reference_id>  (434) 
98

>  <inspiration_ids>  (434) 
[97, 98]

>  <energy_score>  (434) 
-18.853308925914003

>  <distance_score>  (434) 
2.08398701822798

>  <path>  (434) 
/opt/xchem-fragalysis-2/maxwin/BulkDock/SCRATCH/511021/C62094-P98/C62094-P98.minimised.mol

>  <scratch_subdir>  (434) 
/opt/xchem-fragalysis-2/maxwin/BulkDock/SCRATCH/511021/C62094-P98

>  <fragmenstein_runtime>  (434) 
2.3355348110198975

>  <fragmenstein_outcome>  (434) 
too moved

>  <fragmenstein_mode>  (434) 
expansion

>  <fragmenstein_error>  (434) 


$$$$
C62095-P97
     RDKit          3D

 39 40  0  0  0  0  0  0  0  0999 V2000
   18.2303    4.9014   16.0899 C   0  0  0  0  0  0  0  0  0  0  0  0
   17.0386    3.9670   16.1469 C   0  0  0  0  0  0  0  0  0  0  0  0
   16.0566    4.2859   16.7488 O   0  0  0  0  0  0  0  0  0  0  0  0
   17.3262    2.7906   15.3811 N   0  0  0  0  0  0  0  0  0  0  0  0
   16.5603    1.5850   15.1752 C   0  0  0  0  0  0  0  0  0  0  0  0
   15.3574    1.8151   14.2575 C   0  0  0  0  0  0  0  0  0  0  0  0
   14.5838    0.5495   14.0427 C   0  0  0  0  0  0  0  0  0  0  0  0
   14.7598   -0.4057   13.0638 C   0  0  0  0  0  0  0  0  0  0  0  0
   13.8711   -1.5051   13.2228 C   0  0  0  0  0  0  0  0  0  0  0  0
   13.0475   -1.3643   14.3222 C   0  0  0  0  0  0  0  0  0  0  0  0
   11.8788   -2.4718   15.0694 S   0  0  0  0  0  0  0  0  0  0  0  0
   11.4281   -3.3265   13.9995 O   0  0  0  0  0  0  0  0  0  0  0  0
   10.9718   -1.6802   15.8703 O   0  0  0  0  0  0  0  0  0  0  0  0
   12.7384   -3.4913   16.1184 N   0  0  0  0  0  0  0  0  0  0  0  0
   13.6131   -2.8951   17.1307 C   0  0  0  0  0  0  0  0  0  0  0  0
   15.0683   -3.0098   16.7071 C   0  0  0  0  0  0  0  0  0  0  0  0
   16.1082   -2.4342   17.7135 C   0  0  0  0  0  0  0  0  0  0  0  0
   16.9692   -3.6718   17.3678 C   0  0  0  0  0  0  0  0  0  0  0  0
   18.1458   -3.9415   17.4554 O   0  0  0  0  0  0  0  0  0  0  0  0
   15.7290   -4.4159   16.8328 C   0  0  0  0  0  0  0  0  0  0  0  0
   13.2948    0.1435   15.0894 S   0  0  0  0  0  0  0  0  0  0  0  0
   18.3644    5.2688   15.0687 H   0  0  0  0  0  0  0  0  0  0  0  0
   19.1335    4.3830   16.4243 H   0  0  0  0  0  0  0  0  0  0  0  0
   18.0587    5.7552   16.7523 H   0  0  0  0  0  0  0  0  0  0  0  0
   18.2334    2.8966   14.9403 H   0  0  0  0  0  0  0  0  0  0  0  0
   16.2255    1.2406   16.1602 H   0  0  0  0  0  0  0  0  0  0  0  0
   17.2373    0.8305   14.7605 H   0  0  0  0  0  0  0  0  0  0  0  0
   14.7089    2.5973   14.6722 H   0  0  0  0  0  0  0  0  0  0  0  0
   15.7048    2.1967   13.2885 H   0  0  0  0  0  0  0  0  0  0  0  0
   15.5064   -0.3351   12.2811 H   0  0  0  0  0  0  0  0  0  0  0  0
   13.8564   -2.3819   12.5864 H   0  0  0  0  0  0  0  0  0  0  0  0
   12.0912   -4.1964   16.4847 H   0  0  0  0  0  0  0  0  0  0  0  0
   13.3575   -1.8470   17.2960 H   0  0  0  0  0  0  0  0  0  0  0  0
   13.4462   -3.4163   18.0801 H   0  0  0  0  0  0  0  0  0  0  0  0
   15.2326   -2.5852   15.7073 H   0  0  0  0  0  0  0  0  0  0  0  0
   16.5472   -1.4755   17.4302 H   0  0  0  0  0  0  0  0  0  0  0  0
   15.7953   -2.4124   18.7614 H   0  0  0  0  0  0  0  0  0  0  0  0
   15.2895   -5.0786   17.5819 H   0  0  0  0  0  0  0  0  0  0  0  0
   15.8880   -4.9488   15.8947 H   0  0  0  0  0  0  0  0  0  0  0  0
  1  2  1  0
  2  3  2  0
  2  4  1  0
  4  5  1  0
  5  6  1  0
  6  7  1  0
  7  8  2  0
  8  9  1  0
  9 10  2  0
 10 11  1  0
 11 12  2  0
 11 13  2  0
 11 14  1  0
 14 15  1  0
 15 16  1  0
 16 17  1  0
 17 18  1  0
 18 19  2  0
 18 20  1  0
 10 21  1  0
 21  7  1  0
 20 16  1  0
  1 22  1  0
  1 23  1  0
  1 24  1  0
  4 25  1  0
  5 26  1  0
  5 27  1  0
  6 28  1  0
  6 29  1  0
  8 30  1  0
  9 31  1  0
 14 32  1  0
 15 33  1  0
 15 34  1  0
 16 35  1  0
 17 36  1  0
 17 37  1  0
 20 38  1  0
 20 39  1  0
M  END
>  <Energy>  (435) 
-45.002525802997397

>  <compound_id>  (435) 
62095

>  <target_id>  (435) 
1

>  <reference_id>  (435) 
97

>  <inspiration_ids>  (435) 
[97, 98]

>  <energy_score>  (435) 
-31.353565969219858

>  <distance_score>  (435) 
3.622588385577395

>  <path>  (435) 
/opt/xchem-fragalysis-2/maxwin/BulkDock/SCRATCH/511021/C62095-P97/C62095-P97.minimised.mol

>  <scratch_subdir>  (435) 
/opt/xchem-fragalysis-2/maxwin/BulkDock/SCRATCH/511021/C62095-P97

>  <fragmenstein_runtime>  (435) 
5.157748460769653

>  <fragmenstein_outcome>  (435) 
too moved

>  <fragmenstein_mode>  (435) 
expansion

>  <fragmenstein_error>  (435) 


$$$$
C62095-P98
     RDKit          3D

 39 40  0  0  0  0  0  0  0  0999 V2000
   18.3476   -0.7326   17.4483 C   0  0  0  0  0  0  0  0  0  0  0  0
   17.1428    0.0742   17.0131 C   0  0  0  0  0  0  0  0  0  0  0  0
   16.1771    0.1926   17.6558 O   0  0  0  0  0  0  0  0  0  0  0  0
   17.5246    0.7032   15.6504 N   0  0  0  0  0  0  0  0  0  0  0  0
   16.7571    1.5321   14.7540 C   0  0  0  0  0  0  0  0  0  0  0  0
   15.8929    0.7369   13.7737 C   0  0  0  0  0  0  0  0  0  0  0  0
   14.6237    0.1747   14.3351 C   0  0  0  0  0  0  0  0  0  0  0  0
   13.7570    0.7322   15.2498 C   0  0  0  0  0  0  0  0  0  0  0  0
   12.6492   -0.1035   15.5143 C   0  0  0  0  0  0  0  0  0  0  0  0
   12.7321   -1.3064   14.8521 C   0  0  0  0  0  0  0  0  0  0  0  0
   11.7464   -2.7426   15.0326 S   0  0  0  0  0  0  0  0  0  0  0  0
   11.6049   -3.3403   13.7293 O   0  0  0  0  0  0  0  0  0  0  0  0
   10.6116   -2.2499   15.7802 O   0  0  0  0  0  0  0  0  0  0  0  0
   12.5605   -3.8452   16.0204 N   0  0  0  0  0  0  0  0  0  0  0  0
   13.2528   -3.3808   17.2172 C   0  0  0  0  0  0  0  0  0  0  0  0
   14.7174   -3.0845   16.9573 C   0  0  0  0  0  0  0  0  0  0  0  0
   15.6368   -3.3172   18.1884 C   0  0  0  0  0  0  0  0  0  0  0  0
   16.6364   -3.9517   17.2025 C   0  0  0  0  0  0  0  0  0  0  0  0
   17.8152   -4.2254   17.2284 O   0  0  0  0  0  0  0  0  0  0  0  0
   15.5553   -4.1075   16.1397 C   0  0  0  0  0  0  0  0  0  0  0  0
   14.0251   -1.3224   13.7505 S   0  0  0  0  0  0  0  0  0  0  0  0
   18.5864   -1.4866   16.6936 H   0  0  0  0  0  0  0  0  0  0  0  0
   19.2034   -0.0688   17.5990 H   0  0  0  0  0  0  0  0  0  0  0  0
   18.1286   -1.2380   18.3926 H   0  0  0  0  0  0  0  0  0  0  0  0
   18.4786    0.4499   15.4154 H   0  0  0  0  0  0  0  0  0  0  0  0
   17.4860    2.1258   14.1919 H   0  0  0  0  0  0  0  0  0  0  0  0
   16.1599    2.2195   15.3602 H   0  0  0  0  0  0  0  0  0  0  0  0
   15.6085    1.4090   12.9530 H   0  0  0  0  0  0  0  0  0  0  0  0
   16.5027   -0.0596   13.3280 H   0  0  0  0  0  0  0  0  0  0  0  0
   13.9109    1.6973   15.7177 H   0  0  0  0  0  0  0  0  0  0  0  0
   11.8529    0.1287   16.2066 H   0  0  0  0  0  0  0  0  0  0  0  0
   11.8931   -4.5962   16.2307 H   0  0  0  0  0  0  0  0  0  0  0  0
   12.7674   -2.4903   17.5927 H   0  0  0  0  0  0  0  0  0  0  0  0
   13.1413   -4.1599   17.9796 H   0  0  0  0  0  0  0  0  0  0  0  0
   14.8519   -2.0677   16.5710 H   0  0  0  0  0  0  0  0  0  0  0  0
   15.9883   -2.4138   18.6880 H   0  0  0  0  0  0  0  0  0  0  0  0
   15.2761   -4.0334   18.9331 H   0  0  0  0  0  0  0  0  0  0  0  0
   15.1635   -5.1244   16.1012 H   0  0  0  0  0  0  0  0  0  0  0  0
   15.8710   -3.7713   15.1508 H   0  0  0  0  0  0  0  0  0  0  0  0
  1  2  1  0
  2  3  2  0
  2  4  1  0
  4  5  1  0
  5  6  1  0
  6  7  1  0
  7  8  2  0
  8  9  1  0
  9 10  2  0
 10 11  1  0
 11 12  2  0
 11 13  2  0
 11 14  1  0
 14 15  1  0
 15 16  1  0
 16 17  1  0
 17 18  1  0
 18 19  2  0
 18 20  1  0
 10 21  1  0
 21  7  1  0
 20 16  1  0
  1 22  1  0
  1 23  1  0
  1 24  1  0
  4 25  1  0
  5 26  1  0
  5 27  1  0
  6 28  1  0
  6 29  1  0
  8 30  1  0
  9 31  1  0
 14 32  1  0
 15 33  1  0
 15 34  1  0
 16 35  1  0
 17 36  1  0
 17 37  1  0
 20 38  1  0
 20 39  1  0
M  END
>  <Energy>  (436) 
-34.434347398497877

>  <compound_id>  (436) 
62095

>  <target_id>  (436) 
1

>  <reference_id>  (436) 
98

>  <inspiration_ids>  (436) 
[97, 98]

>  <energy_score>  (436) 
-30.285678604303513

>  <distance_score>  (436) 
2.5909129214732656

>  <path>  (436) 
/opt/xchem-fragalysis-2/maxwin/BulkDock/SCRATCH/511021/C62095-P98/C62095-P98.minimised.mol

>  <scratch_subdir>  (436) 
/opt/xchem-fragalysis-2/maxwin/BulkDock/SCRATCH/511021/C62095-P98

>  <fragmenstein_runtime>  (436) 
3.434004068374634

>  <fragmenstein_outcome>  (436) 
too moved

>  <fragmenstein_mode>  (436) 
expansion

>  <fragmenstein_error>  (436) 


$$$$
C62096-P97
     RDKit          3D

 45 48  0  0  0  0  0  0  0  0999 V2000
   18.0297   -2.8699   13.4775 O   0  0  0  0  0  0  0  0  0  0  0  0
   17.3219   -2.7819   14.4009 C   0  0  0  0  0  0  0  0  0  0  0  0
   16.9241   -3.9891   15.2888 C   0  0  0  0  0  0  0  0  0  0  0  0
   16.8578   -3.7049   16.7216 N   0  0  0  0  0  0  0  0  0  0  0  0
   18.0369   -3.1703   17.3409 C   0  0  0  0  0  0  0  0  0  0  0  0
   17.6961   -3.0408   19.0866 S   0  0  0  0  0  0  0  0  0  0  0  0
   16.3322   -4.2066   19.0240 C   0  0  0  0  0  0  0  0  0  0  0  0
   16.0287   -4.4384   17.5623 C   0  0  0  0  0  0  0  0  0  0  0  0
   15.1400   -5.1989   17.2026 O   0  0  0  0  0  0  0  0  0  0  0  0
   16.5307   -1.5674   14.9467 N   0  0  0  0  0  0  0  0  0  0  0  0
   16.3722   -0.2303   14.4115 C   0  0  0  0  0  0  0  0  0  0  0  0
   15.2028    0.6015   15.0104 C   0  0  0  0  0  0  0  0  0  0  0  0
   15.3740    1.0979   16.4425 C   0  0  0  0  0  0  0  0  0  0  0  0
   14.5088    1.9372   17.1297 C   0  0  0  0  0  0  0  0  0  0  0  0
   14.9461    2.2250   18.4534 C   0  0  0  0  0  0  0  0  0  0  0  0
   16.1391    1.6062   18.7428 C   0  0  0  0  0  0  0  0  0  0  0  0
   16.7284    0.7044   17.4201 S   0  0  0  0  0  0  0  0  0  0  0  0
   13.8700   -0.0999   14.8027 C   0  0  0  0  0  0  0  0  0  0  0  0
   12.9589    0.1755   13.7952 C   0  0  0  0  0  0  0  0  0  0  0  0
   11.9487   -0.7447   13.8615 N   0  0  0  0  0  0  0  0  0  0  0  0
   12.2127   -1.6573   14.8494 C   0  0  0  0  0  0  0  0  0  0  0  0
   11.5413   -2.8365   15.1664 C   0  0  0  0  0  0  0  0  0  0  0  0
   12.0210   -3.5747   16.2410 C   0  0  0  0  0  0  0  0  0  0  0  0
   13.0587   -3.0985   17.0239 C   0  0  0  0  0  0  0  0  0  0  0  0
   13.7229   -1.9180   16.6930 C   0  0  0  0  0  0  0  0  0  0  0  0
   13.3352   -1.2103   15.5396 C   0  0  0  0  0  0  0  0  0  0  0  0
   17.6506   -4.7956   15.1403 H   0  0  0  0  0  0  0  0  0  0  0  0
   15.9492   -4.3404   14.9653 H   0  0  0  0  0  0  0  0  0  0  0  0
   18.8691   -3.8638   17.1831 H   0  0  0  0  0  0  0  0  0  0  0  0
   18.2947   -2.1950   16.9237 H   0  0  0  0  0  0  0  0  0  0  0  0
   16.6219   -5.1521   19.4893 H   0  0  0  0  0  0  0  0  0  0  0  0
   15.4545   -3.7904   19.5239 H   0  0  0  0  0  0  0  0  0  0  0  0
   15.9491   -1.8629   15.7206 H   0  0  0  0  0  0  0  0  0  0  0  0
   17.3324    0.2837   14.5302 H   0  0  0  0  0  0  0  0  0  0  0  0
   16.2222   -0.3540   13.3318 H   0  0  0  0  0  0  0  0  0  0  0  0
   15.1711    1.5224   14.4060 H   0  0  0  0  0  0  0  0  0  0  0  0
   13.5931    2.3224   16.6953 H   0  0  0  0  0  0  0  0  0  0  0  0
   14.4146    2.8549   19.1562 H   0  0  0  0  0  0  0  0  0  0  0  0
   16.7008    1.6474   19.6664 H   0  0  0  0  0  0  0  0  0  0  0  0
   12.9615    0.9275   13.0172 H   0  0  0  0  0  0  0  0  0  0  0  0
   11.1401   -0.8059   13.2509 H   0  0  0  0  0  0  0  0  0  0  0  0
   10.7013   -3.1846   14.5798 H   0  0  0  0  0  0  0  0  0  0  0  0
   11.5624   -4.5248   16.4990 H   0  0  0  0  0  0  0  0  0  0  0  0
   13.3458   -3.6615   17.9074 H   0  0  0  0  0  0  0  0  0  0  0  0
   14.5389   -1.5761   17.3207 H   0  0  0  0  0  0  0  0  0  0  0  0
  1  2  2  0
  2  3  1  0
  3  4  1  0
  4  5  1  0
  5  6  1  0
  6  7  1  0
  7  8  1  0
  8  9  2  0
  2 10  1  0
 10 11  1  0
 11 12  1  0
 12 13  1  0
 13 14  2  0
 14 15  1  0
 15 16  2  0
 16 17  1  0
 12 18  1  0
 18 19  2  0
 19 20  1  0
 20 21  1  0
 21 22  2  0
 22 23  1  0
 23 24  2  0
 24 25  1  0
 25 26  2  0
  8  4  1  0
 17 13  1  0
 26 18  1  0
 26 21  1  0
  3 27  1  0
  3 28  1  0
  5 29  1  0
  5 30  1  0
  7 31  1  0
  7 32  1  0
 10 33  1  0
 11 34  1  0
 11 35  1  0
 12 36  1  0
 14 37  1  0
 15 38  1  0
 16 39  1  0
 19 40  1  0
 20 41  1  0
 22 42  1  0
 23 43  1  0
 24 44  1  0
 25 45  1  0
M  END
>  <Energy>  (437) 
63.412874012400877

>  <compound_id>  (437) 
62096

>  <target_id>  (437) 
1

>  <reference_id>  (437) 
97

>  <inspiration_ids>  (437) 
[97, 98]

>  <energy_score>  (437) 
-47.18085834432409

>  <distance_score>  (437) 
1.3760961955731315

>  <path>  (437) 
/opt/xchem-fragalysis-2/maxwin/BulkDock/SCRATCH/511021/C62096-P97/C62096-P97.minimised.mol

>  <scratch_subdir>  (437) 
/opt/xchem-fragalysis-2/maxwin/BulkDock/SCRATCH/511021/C62096-P97

>  <fragmenstein_runtime>  (437) 
2.837919235229492

>  <fragmenstein_outcome>  (437) 
too moved

>  <fragmenstein_mode>  (437) 
expansion

>  <fragmenstein_error>  (437) 


$$$$
C62096-P98
     RDKit          3D

 45 48  0  0  0  0  0  0  0  0999 V2000
   18.0095   -3.2467   13.6543 O   0  0  0  0  0  0  0  0  0  0  0  0
   17.2767   -3.0704   14.5454 C   0  0  0  0  0  0  0  0  0  0  0  0
   16.7842   -4.2079   15.4812 C   0  0  0  0  0  0  0  0  0  0  0  0
   16.7124   -3.8496   16.8963 N   0  0  0  0  0  0  0  0  0  0  0  0
   17.9075   -3.3362   17.5045 C   0  0  0  0  0  0  0  0  0  0  0  0
   17.5284   -3.0567   19.2229 S   0  0  0  0  0  0  0  0  0  0  0  0
   16.1360   -4.1929   19.2155 C   0  0  0  0  0  0  0  0  0  0  0  0
   15.8558   -4.5226   17.7662 C   0  0  0  0  0  0  0  0  0  0  0  0
   14.9671   -5.3024   17.4446 O   0  0  0  0  0  0  0  0  0  0  0  0
   16.5533   -1.7813   15.0104 N   0  0  0  0  0  0  0  0  0  0  0  0
   16.5084   -0.4602   14.4151 C   0  0  0  0  0  0  0  0  0  0  0  0
   15.3576    0.4618   14.9163 C   0  0  0  0  0  0  0  0  0  0  0  0
   15.4852    0.9974   16.3408 C   0  0  0  0  0  0  0  0  0  0  0  0
   14.5807    1.8194   16.9979 C   0  0  0  0  0  0  0  0  0  0  0  0
   14.9784    2.1354   18.3276 C   0  0  0  0  0  0  0  0  0  0  0  0
   16.1872    1.5643   18.6482 C   0  0  0  0  0  0  0  0  0  0  0  0
   16.8362    0.6698   17.3487 S   0  0  0  0  0  0  0  0  0  0  0  0
   14.0062   -0.1913   14.6717 C   0  0  0  0  0  0  0  0  0  0  0  0
   13.1620    0.0511   13.5992 C   0  0  0  0  0  0  0  0  0  0  0  0
   12.1246   -0.8399   13.6577 N   0  0  0  0  0  0  0  0  0  0  0  0
   12.3008   -1.6936   14.7158 C   0  0  0  0  0  0  0  0  0  0  0  0
   11.5797   -2.8330   15.0647 C   0  0  0  0  0  0  0  0  0  0  0  0
   11.9930   -3.5269   16.1955 C   0  0  0  0  0  0  0  0  0  0  0  0
   13.0039   -3.0387   17.0049 C   0  0  0  0  0  0  0  0  0  0  0  0
   13.7091   -1.8918   16.6494 C   0  0  0  0  0  0  0  0  0  0  0  0
   13.3977   -1.2396   15.4407 C   0  0  0  0  0  0  0  0  0  0  0  0
   15.7943   -4.5173   15.1599 H   0  0  0  0  0  0  0  0  0  0  0  0
   17.4612   -5.0640   15.3862 H   0  0  0  0  0  0  0  0  0  0  0  0
   18.7012   -4.0857   17.4214 H   0  0  0  0  0  0  0  0  0  0  0  0
   18.2322   -2.4098   17.0271 H   0  0  0  0  0  0  0  0  0  0  0  0
   16.3940   -5.1087   19.7531 H   0  0  0  0  0  0  0  0  0  0  0  0
   15.2590   -3.7216   19.6652 H   0  0  0  0  0  0  0  0  0  0  0  0
   16.0537   -1.9657   15.8722 H   0  0  0  0  0  0  0  0  0  0  0  0
   17.4902    0.0010   14.5681 H   0  0  0  0  0  0  0  0  0  0  0  0
   16.4111   -0.6194   13.3341 H   0  0  0  0  0  0  0  0  0  0  0  0
   15.4010    1.3582   14.2778 H   0  0  0  0  0  0  0  0  0  0  0  0
   13.6602    2.1653   16.5416 H   0  0  0  0  0  0  0  0  0  0  0  0
   14.4098    2.7516   19.0130 H   0  0  0  0  0  0  0  0  0  0  0  0
   16.7273    1.6354   19.5828 H   0  0  0  0  0  0  0  0  0  0  0  0
   13.2378    0.7499   12.7769 H   0  0  0  0  0  0  0  0  0  0  0  0
   11.3578   -0.9231   13.0004 H   0  0  0  0  0  0  0  0  0  0  0  0
   10.7613   -3.1933   14.4567 H   0  0  0  0  0  0  0  0  0  0  0  0
   11.5067   -4.4561   16.4726 H   0  0  0  0  0  0  0  0  0  0  0  0
   13.2363   -3.5658   17.9259 H   0  0  0  0  0  0  0  0  0  0  0  0
   14.5028   -1.5377   17.2984 H   0  0  0  0  0  0  0  0  0  0  0  0
  1  2  2  0
  2  3  1  0
  3  4  1  0
  4  5  1  0
  5  6  1  0
  6  7  1  0
  7  8  1  0
  8  9  2  0
  2 10  1  0
 10 11  1  0
 11 12  1  0
 12 13  1  0
 13 14  2  0
 14 15  1  0
 15 16  2  0
 16 17  1  0
 12 18  1  0
 18 19  2  0
 19 20  1  0
 20 21  1  0
 21 22  2  0
 22 23  1  0
 23 24  2  0
 24 25  1  0
 25 26  2  0
  8  4  1  0
 17 13  1  0
 26 18  1  0
 26 21  1  0
  3 27  1  0
  3 28  1  0
  5 29  1  0
  5 30  1  0
  7 31  1  0
  7 32  1  0
 10 33  1  0
 11 34  1  0
 11 35  1  0
 12 36  1  0
 14 37  1  0
 15 38  1  0
 16 39  1  0
 19 40  1  0
 20 41  1  0
 22 42  1  0
 23 43  1  0
 24 44  1  0
 25 45  1  0
M  END
>  <Energy>  (438) 
63.542789401682533

>  <compound_id>  (438) 
62096

>  <target_id>  (438) 
1

>  <reference_id>  (438) 
98

>  <inspiration_ids>  (438) 
[97, 98]

>  <energy_score>  (438) 
-47.0509429550402

>  <distance_score>  (438) 
1.4055931122336027

>  <path>  (438) 
/opt/xchem-fragalysis-2/maxwin/BulkDock/SCRATCH/511021/C62096-P98/C62096-P98.minimised.mol

>  <scratch_subdir>  (438) 
/opt/xchem-fragalysis-2/maxwin/BulkDock/SCRATCH/511021/C62096-P98

>  <fragmenstein_runtime>  (438) 
3.1196913719177246

>  <fragmenstein_outcome>  (438) 
too moved

>  <fragmenstein_mode>  (438) 
expansion

>  <fragmenstein_error>  (438) 


$$$$
C62097-P97
     RDKit          3D

 47 50  0  0  0  0  0  0  0  0999 V2000
   18.1677   -2.8126   13.5348 O   0  0  0  0  0  0  0  0  0  0  0  0
   17.3831   -2.7595   14.3966 C   0  0  0  0  0  0  0  0  0  0  0  0
   16.9865   -3.9719   15.2773 C   0  0  0  0  0  0  0  0  0  0  0  0
   16.8125   -3.6633   16.6975 N   0  0  0  0  0  0  0  0  0  0  0  0
   17.8652   -3.0077   17.4306 C   0  0  0  0  0  0  0  0  0  0  0  0
   17.8708   -3.7158   18.7644 C   0  0  0  0  0  0  0  0  0  0  0  0
   16.4215   -4.1186   18.9589 C   0  0  0  0  0  0  0  0  0  0  0  0
   16.0100   -4.4257   17.5444 C   0  0  0  0  0  0  0  0  0  0  0  0
   15.1221   -5.2016   17.2438 O   0  0  0  0  0  0  0  0  0  0  0  0
   16.5065   -1.5803   14.8835 N   0  0  0  0  0  0  0  0  0  0  0  0
   16.3446   -0.2433   14.3468 C   0  0  0  0  0  0  0  0  0  0  0  0
   15.1989    0.5634   15.0191 C   0  0  0  0  0  0  0  0  0  0  0  0
   15.2288    2.0225   14.6010 C   0  0  0  0  0  0  0  0  0  0  0  0
   15.4593    2.5748   13.3529 C   0  0  0  0  0  0  0  0  0  0  0  0
   15.4089    3.9984   13.3665 C   0  0  0  0  0  0  0  0  0  0  0  0
   15.1392    4.4924   14.6219 C   0  0  0  0  0  0  0  0  0  0  0  0
   14.9460    3.2466   15.7747 S   0  0  0  0  0  0  0  0  0  0  0  0
   13.8522   -0.0929   14.7733 C   0  0  0  0  0  0  0  0  0  0  0  0
   12.9398    0.1615   13.7619 C   0  0  0  0  0  0  0  0  0  0  0  0
   11.9272   -0.7550   13.8506 N   0  0  0  0  0  0  0  0  0  0  0  0
   12.2003   -1.6576   14.8444 C   0  0  0  0  0  0  0  0  0  0  0  0
   11.5412   -2.8395   15.1757 C   0  0  0  0  0  0  0  0  0  0  0  0
   12.0358   -3.5631   16.2538 C   0  0  0  0  0  0  0  0  0  0  0  0
   13.0735   -3.0686   17.0270 C   0  0  0  0  0  0  0  0  0  0  0  0
   13.7246   -1.8843   16.6826 C   0  0  0  0  0  0  0  0  0  0  0  0
   13.3202   -1.1941   15.5253 C   0  0  0  0  0  0  0  0  0  0  0  0
   17.7657   -4.7378   15.1986 H   0  0  0  0  0  0  0  0  0  0  0  0
   16.0555   -4.3880   14.9046 H   0  0  0  0  0  0  0  0  0  0  0  0
   18.8286   -3.1020   16.9204 H   0  0  0  0  0  0  0  0  0  0  0  0
   17.6067   -1.9490   17.5345 H   0  0  0  0  0  0  0  0  0  0  0  0
   18.2516   -3.0892   19.5757 H   0  0  0  0  0  0  0  0  0  0  0  0
   18.4996   -4.6136   18.7087 H   0  0  0  0  0  0  0  0  0  0  0  0
   16.3282   -4.9993   19.5986 H   0  0  0  0  0  0  0  0  0  0  0  0
   15.8095   -3.2981   19.3450 H   0  0  0  0  0  0  0  0  0  0  0  0
   15.9936   -1.8593   15.7110 H   0  0  0  0  0  0  0  0  0  0  0  0
   16.1884   -0.3504   13.2669 H   0  0  0  0  0  0  0  0  0  0  0  0
   17.3072    0.2633   14.4827 H   0  0  0  0  0  0  0  0  0  0  0  0
   15.3839    0.5253   16.1031 H   0  0  0  0  0  0  0  0  0  0  0  0
   15.6524    1.9857   12.4637 H   0  0  0  0  0  0  0  0  0  0  0  0
   15.5621    4.6277   12.4982 H   0  0  0  0  0  0  0  0  0  0  0  0
   15.0446    5.5276   14.9196 H   0  0  0  0  0  0  0  0  0  0  0  0
   12.9342    0.9002   12.9717 H   0  0  0  0  0  0  0  0  0  0  0  0
   11.1142   -0.8231   13.2469 H   0  0  0  0  0  0  0  0  0  0  0  0
   10.7008   -3.2008   14.5978 H   0  0  0  0  0  0  0  0  0  0  0  0
   11.5880   -4.5157   16.5232 H   0  0  0  0  0  0  0  0  0  0  0  0
   13.3711   -3.6221   17.9135 H   0  0  0  0  0  0  0  0  0  0  0  0
   14.5449   -1.5271   17.2957 H   0  0  0  0  0  0  0  0  0  0  0  0
  1  2  2  0
  2  3  1  0
  3  4  1  0
  4  5  1  0
  5  6  1  0
  6  7  1  0
  7  8  1  0
  8  9  2  0
  2 10  1  0
 10 11  1  0
 11 12  1  0
 12 13  1  0
 13 14  2  0
 14 15  1  0
 15 16  2  0
 16 17  1  0
 12 18  1  0
 18 19  2  0
 19 20  1  0
 20 21  1  0
 21 22  2  0
 22 23  1  0
 23 24  2  0
 24 25  1  0
 25 26  2  0
  8  4  1  0
 17 13  1  0
 26 18  1  0
 26 21  1  0
  3 27  1  0
  3 28  1  0
  5 29  1  0
  5 30  1  0
  6 31  1  0
  6 32  1  0
  7 33  1  0
  7 34  1  0
 10 35  1  0
 11 36  1  0
 11 37  1  0
 12 38  1  0
 14 39  1  0
 15 40  1  0
 16 41  1  0
 19 42  1  0
 20 43  1  0
 22 44  1  0
 23 45  1  0
 24 46  1  0
 25 47  1  0
M  END
>  <Energy>  (439) 
66.25510511670673

>  <compound_id>  (439) 
62097

>  <target_id>  (439) 
1

>  <reference_id>  (439) 
97

>  <inspiration_ids>  (439) 
[97, 98]

>  <energy_score>  (439) 
-34.13558157301702

>  <distance_score>  (439) 
1.3207447222717446

>  <path>  (439) 
/opt/xchem-fragalysis-2/maxwin/BulkDock/SCRATCH/511021/C62097-P97/C62097-P97.minimised.mol

>  <scratch_subdir>  (439) 
/opt/xchem-fragalysis-2/maxwin/BulkDock/SCRATCH/511021/C62097-P97

>  <fragmenstein_runtime>  (439) 
2.750735282897949

>  <fragmenstein_outcome>  (439) 
too moved

>  <fragmenstein_mode>  (439) 
expansion

>  <fragmenstein_error>  (439) 


$$$$
C62097-P98
     RDKit          3D

 47 50  0  0  0  0  0  0  0  0999 V2000
   18.2344   -3.2403   13.7134 O   0  0  0  0  0  0  0  0  0  0  0  0
   17.3883   -3.1034   14.5055 C   0  0  0  0  0  0  0  0  0  0  0  0
   16.9006   -4.2380   15.4467 C   0  0  0  0  0  0  0  0  0  0  0  0
   16.6700   -3.8211   16.8305 N   0  0  0  0  0  0  0  0  0  0  0  0
   17.6967   -3.1076   17.5482 C   0  0  0  0  0  0  0  0  0  0  0  0
   17.6594   -3.7147   18.9291 C   0  0  0  0  0  0  0  0  0  0  0  0
   16.2040   -4.1043   19.1061 C   0  0  0  0  0  0  0  0  0  0  0  0
   15.8363   -4.5192   17.7061 C   0  0  0  0  0  0  0  0  0  0  0  0
   14.9566   -5.3194   17.4414 O   0  0  0  0  0  0  0  0  0  0  0  0
   16.5235   -1.8645   14.8461 N   0  0  0  0  0  0  0  0  0  0  0  0
   16.4562   -0.5596   14.2143 C   0  0  0  0  0  0  0  0  0  0  0  0
   15.3545    0.3721   14.7997 C   0  0  0  0  0  0  0  0  0  0  0  0
   15.4791    1.7863   14.2621 C   0  0  0  0  0  0  0  0  0  0  0  0
   15.7783    2.2175   12.9811 C   0  0  0  0  0  0  0  0  0  0  0  0
   15.8080    3.6378   12.8745 C   0  0  0  0  0  0  0  0  0  0  0  0
   15.5277    4.2504   14.0740 C   0  0  0  0  0  0  0  0  0  0  0  0
   15.2278    3.1193   15.3185 S   0  0  0  0  0  0  0  0  0  0  0  0
   13.9750   -0.2206   14.5774 C   0  0  0  0  0  0  0  0  0  0  0  0
   13.1046   -0.0130   13.5190 C   0  0  0  0  0  0  0  0  0  0  0  0
   12.0578   -0.8861   13.6433 N   0  0  0  0  0  0  0  0  0  0  0  0
   12.2653   -1.7118   14.7170 C   0  0  0  0  0  0  0  0  0  0  0  0
   11.5674   -2.8506   15.1099 C   0  0  0  0  0  0  0  0  0  0  0  0
   12.0217   -3.5131   16.2439 C   0  0  0  0  0  0  0  0  0  0  0  0
   13.0411   -2.9863   17.0204 C   0  0  0  0  0  0  0  0  0  0  0  0
   13.7212   -1.8367   16.6234 C   0  0  0  0  0  0  0  0  0  0  0  0
   13.3733   -1.2280   15.4030 C   0  0  0  0  0  0  0  0  0  0  0  0
   17.6588   -5.0286   15.4651 H   0  0  0  0  0  0  0  0  0  0  0  0
   15.9786   -4.6612   15.0595 H   0  0  0  0  0  0  0  0  0  0  0  0
   18.6774   -3.2344   17.0798 H   0  0  0  0  0  0  0  0  0  0  0  0
   17.4321   -2.0454   17.5656 H   0  0  0  0  0  0  0  0  0  0  0  0
   18.0142   -3.0294   19.7039 H   0  0  0  0  0  0  0  0  0  0  0  0
   18.2887   -4.6133   18.9603 H   0  0  0  0  0  0  0  0  0  0  0  0
   16.0898   -4.9340   19.8075 H   0  0  0  0  0  0  0  0  0  0  0  0
   15.5811   -3.2579   19.4099 H   0  0  0  0  0  0  0  0  0  0  0  0
   15.9378   -2.0705   15.6461 H   0  0  0  0  0  0  0  0  0  0  0  0
   17.4479   -0.1071   14.3310 H   0  0  0  0  0  0  0  0  0  0  0  0
   16.3101   -0.7361   13.1421 H   0  0  0  0  0  0  0  0  0  0  0  0
   15.5225    0.4119   15.8862 H   0  0  0  0  0  0  0  0  0  0  0  0
   15.9672    1.5458   12.1516 H   0  0  0  0  0  0  0  0  0  0  0  0
   16.0256    4.1820   11.9635 H   0  0  0  0  0  0  0  0  0  0  0  0
   15.4843    5.3109   14.2815 H   0  0  0  0  0  0  0  0  0  0  0  0
   13.1613    0.6503   12.6665 H   0  0  0  0  0  0  0  0  0  0  0  0
   11.2714   -0.9848   13.0113 H   0  0  0  0  0  0  0  0  0  0  0  0
   10.7411   -3.2382   14.5299 H   0  0  0  0  0  0  0  0  0  0  0  0
   11.5592   -4.4463   16.5502 H   0  0  0  0  0  0  0  0  0  0  0  0
   13.3033   -3.4911   17.9463 H   0  0  0  0  0  0  0  0  0  0  0  0
   14.5345   -1.4570   17.2329 H   0  0  0  0  0  0  0  0  0  0  0  0
  1  2  2  0
  2  3  1  0
  3  4  1  0
  4  5  1  0
  5  6  1  0
  6  7  1  0
  7  8  1  0
  8  9  2  0
  2 10  1  0
 10 11  1  0
 11 12  1  0
 12 13  1  0
 13 14  2  0
 14 15  1  0
 15 16  2  0
 16 17  1  0
 12 18  1  0
 18 19  2  0
 19 20  1  0
 20 21  1  0
 21 22  2  0
 22 23  1  0
 23 24  2  0
 24 25  1  0
 25 26  2  0
  8  4  1  0
 17 13  1  0
 26 18  1  0
 26 21  1  0
  3 27  1  0
  3 28  1  0
  5 29  1  0
  5 30  1  0
  6 31  1  0
  6 32  1  0
  7 33  1  0
  7 34  1  0
 10 35  1  0
 11 36  1  0
 11 37  1  0
 12 38  1  0
 14 39  1  0
 15 40  1  0
 16 41  1  0
 19 42  1  0
 20 43  1  0
 22 44  1  0
 23 45  1  0
 24 46  1  0
 25 47  1  0
M  END
>  <Energy>  (440) 
66.772242597576366

>  <compound_id>  (440) 
62097

>  <target_id>  (440) 
1

>  <reference_id>  (440) 
98

>  <inspiration_ids>  (440) 
[97, 98]

>  <energy_score>  (440) 
-33.618444092144586

>  <distance_score>  (440) 
1.3446234942296091

>  <path>  (440) 
/opt/xchem-fragalysis-2/maxwin/BulkDock/SCRATCH/511021/C62097-P98/C62097-P98.minimised.mol

>  <scratch_subdir>  (440) 
/opt/xchem-fragalysis-2/maxwin/BulkDock/SCRATCH/511021/C62097-P98

>  <fragmenstein_runtime>  (440) 
2.564974069595337

>  <fragmenstein_outcome>  (440) 
too moved

>  <fragmenstein_mode>  (440) 
expansion

>  <fragmenstein_error>  (440) 


$$$$
C62098-P97
     RDKit          3D

 33 34  0  0  0  0  0  0  0  0999 V2000
   18.1490   -0.8429   17.6051 O   0  0  0  0  0  0  0  0  0  0  0  0
   17.4917   -1.6221   17.0361 C   0  0  0  0  0  0  0  0  0  0  0  0
   16.9763   -2.9261   17.6853 C   0  0  0  0  0  0  0  0  0  0  0  0
   15.5804   -3.1878   17.3437 N   0  0  0  0  0  0  0  0  0  0  0  0
   14.5425   -2.2398   17.6259 C   0  0  0  0  0  0  0  0  0  0  0  0
   13.2777   -3.0617   17.5513 C   0  0  0  0  0  0  0  0  0  0  0  0
   13.6074   -4.2187   16.6656 C   0  0  0  0  0  0  0  0  0  0  0  0
   15.0704   -4.4036   16.9420 C   0  0  0  0  0  0  0  0  0  0  0  0
   15.6942   -5.4378   16.8105 O   0  0  0  0  0  0  0  0  0  0  0  0
   16.9822   -1.6281   15.5711 N   0  0  0  0  0  0  0  0  0  0  0  0
   17.0979   -0.6319   14.5362 C   0  0  0  0  0  0  0  0  0  0  0  0
   15.9198    0.3542   14.5348 C   0  0  0  0  0  0  0  0  0  0  0  0
   14.5606   -0.2758   14.3700 C   0  0  0  0  0  0  0  0  0  0  0  0
   13.3966    0.0596   15.0334 C   0  0  0  0  0  0  0  0  0  0  0  0
   12.3205   -0.7713   14.6521 C   0  0  0  0  0  0  0  0  0  0  0  0
   10.5936   -0.5096   15.3107 Br  0  0  0  0  0  0  0  0  0  0  0  0
   12.6661   -1.7465   13.7604 C   0  0  0  0  0  0  0  0  0  0  0  0
   14.2721   -1.5161   13.2253 S   0  0  0  0  0  0  0  0  0  0  0  0
   17.6081   -3.7580   17.3594 H   0  0  0  0  0  0  0  0  0  0  0  0
   17.0407   -2.8342   18.7743 H   0  0  0  0  0  0  0  0  0  0  0  0
   14.6839   -1.8078   18.6216 H   0  0  0  0  0  0  0  0  0  0  0  0
   14.5709   -1.4434   16.8883 H   0  0  0  0  0  0  0  0  0  0  0  0
   13.0439   -3.4652   18.5429 H   0  0  0  0  0  0  0  0  0  0  0  0
   12.4328   -2.4946   17.1653 H   0  0  0  0  0  0  0  0  0  0  0  0
   13.0119   -5.0969   16.9049 H   0  0  0  0  0  0  0  0  0  0  0  0
   13.4480   -3.9166   15.6389 H   0  0  0  0  0  0  0  0  0  0  0  0
   16.3618   -2.4228   15.4300 H   0  0  0  0  0  0  0  0  0  0  0  0
   17.1928   -1.1556   13.5802 H   0  0  0  0  0  0  0  0  0  0  0  0
   18.0256   -0.0781   14.7143 H   0  0  0  0  0  0  0  0  0  0  0  0
   16.0671    1.0853   13.7304 H   0  0  0  0  0  0  0  0  0  0  0  0
   15.9327    0.9153   15.4785 H   0  0  0  0  0  0  0  0  0  0  0  0
   13.3367    0.8693   15.7507 H   0  0  0  0  0  0  0  0  0  0  0  0
   12.0375   -2.5152   13.3327 H   0  0  0  0  0  0  0  0  0  0  0  0
  1  2  2  0
  2  3  1  0
  3  4  1  0
  4  5  1  0
  5  6  1  0
  6  7  1  0
  7  8  1  0
  8  9  2  0
  2 10  1  0
 10 11  1  0
 11 12  1  0
 12 13  1  0
 13 14  2  0
 14 15  1  0
 15 16  1  0
 15 17  2  0
 17 18  1  0
  8  4  1  0
 18 13  1  0
  3 19  1  0
  3 20  1  0
  5 21  1  0
  5 22  1  0
  6 23  1  0
  6 24  1  0
  7 25  1  0
  7 26  1  0
 10 27  1  0
 11 28  1  0
 11 29  1  0
 12 30  1  0
 12 31  1  0
 14 32  1  0
 17 33  1  0
M  END
>  <Energy>  (441) 
19.907497845591656

>  <compound_id>  (441) 
62098

>  <target_id>  (441) 
1

>  <reference_id>  (441) 
97

>  <inspiration_ids>  (441) 
[97, 98]

>  <energy_score>  (441) 
-24.772019004838484

>  <distance_score>  (441) 
2.3651930142934803

>  <path>  (441) 
/opt/xchem-fragalysis-2/maxwin/BulkDock/SCRATCH/511021/C62098-P97/C62098-P97.minimised.mol

>  <scratch_subdir>  (441) 
/opt/xchem-fragalysis-2/maxwin/BulkDock/SCRATCH/511021/C62098-P97

>  <fragmenstein_runtime>  (441) 
2.3096890449523926

>  <fragmenstein_outcome>  (441) 
too moved

>  <fragmenstein_mode>  (441) 
expansion

>  <fragmenstein_error>  (441) 


$$$$
C62098-P98
     RDKit          3D

 33 34  0  0  0  0  0  0  0  0999 V2000
   18.1174   -0.9122   17.8973 O   0  0  0  0  0  0  0  0  0  0  0  0
   17.4334   -1.6485   17.3027 C   0  0  0  0  0  0  0  0  0  0  0  0
   16.8342   -2.9327   17.9297 C   0  0  0  0  0  0  0  0  0  0  0  0
   15.4735   -3.2231   17.4787 N   0  0  0  0  0  0  0  0  0  0  0  0
   14.4328   -2.2311   17.5654 C   0  0  0  0  0  0  0  0  0  0  0  0
   13.2922   -2.9573   16.9058 C   0  0  0  0  0  0  0  0  0  0  0  0
   13.4021   -4.3442   17.4847 C   0  0  0  0  0  0  0  0  0  0  0  0
   14.8923   -4.4801   17.6591 C   0  0  0  0  0  0  0  0  0  0  0  0
   15.4502   -5.5194   17.9607 O   0  0  0  0  0  0  0  0  0  0  0  0
   16.9569   -1.6079   15.8258 N   0  0  0  0  0  0  0  0  0  0  0  0
   17.1477   -0.6020   14.8057 C   0  0  0  0  0  0  0  0  0  0  0  0
   16.1117    0.5345   14.8811 C   0  0  0  0  0  0  0  0  0  0  0  0
   14.6862    0.1038   14.6584 C   0  0  0  0  0  0  0  0  0  0  0  0
   14.1976   -1.0462   14.0767 C   0  0  0  0  0  0  0  0  0  0  0  0
   12.7949   -1.1248   14.1928 C   0  0  0  0  0  0  0  0  0  0  0  0
   11.8767   -2.6542   13.6829 Br  0  0  0  0  0  0  0  0  0  0  0  0
   12.2132   -0.0331   14.7671 C   0  0  0  0  0  0  0  0  0  0  0  0
   13.4005    1.1270   15.1684 S   0  0  0  0  0  0  0  0  0  0  0  0
   17.4840   -3.7799   17.6878 H   0  0  0  0  0  0  0  0  0  0  0  0
   16.8041   -2.8160   19.0185 H   0  0  0  0  0  0  0  0  0  0  0  0
   14.2458   -2.0280   18.6246 H   0  0  0  0  0  0  0  0  0  0  0  0
   14.6960   -1.3027   17.0648 H   0  0  0  0  0  0  0  0  0  0  0  0
   12.3191   -2.4903   17.0295 H   0  0  0  0  0  0  0  0  0  0  0  0
   13.5130   -3.0513   15.8453 H   0  0  0  0  0  0  0  0  0  0  0  0
   12.9333   -4.4272   18.4667 H   0  0  0  0  0  0  0  0  0  0  0  0
   13.0176   -5.0937   16.7935 H   0  0  0  0  0  0  0  0  0  0  0  0
   16.2998   -2.3670   15.6596 H   0  0  0  0  0  0  0  0  0  0  0  0
   17.1258   -1.1037   13.8333 H   0  0  0  0  0  0  0  0  0  0  0  0
   18.1468   -0.1789   14.9535 H   0  0  0  0  0  0  0  0  0  0  0  0
   16.3674    1.2886   14.1264 H   0  0  0  0  0  0  0  0  0  0  0  0
   16.1956    1.0167   15.8638 H   0  0  0  0  0  0  0  0  0  0  0  0
   14.8211   -1.8224   13.6489 H   0  0  0  0  0  0  0  0  0  0  0  0
   11.1630    0.1509   14.9486 H   0  0  0  0  0  0  0  0  0  0  0  0
  1  2  2  0
  2  3  1  0
  3  4  1  0
  4  5  1  0
  5  6  1  0
  6  7  1  0
  7  8  1  0
  8  9  2  0
  2 10  1  0
 10 11  1  0
 11 12  1  0
 12 13  1  0
 13 14  2  0
 14 15  1  0
 15 16  1  0
 15 17  2  0
 17 18  1  0
  8  4  1  0
 18 13  1  0
  3 19  1  0
  3 20  1  0
  5 21  1  0
  5 22  1  0
  6 23  1  0
  6 24  1  0
  7 25  1  0
  7 26  1  0
 10 27  1  0
 11 28  1  0
 11 29  1  0
 12 30  1  0
 12 31  1  0
 14 32  1  0
 17 33  1  0
M  END
>  <Energy>  (442) 
23.963339651011573

>  <compound_id>  (442) 
62098

>  <target_id>  (442) 
1

>  <reference_id>  (442) 
98

>  <inspiration_ids>  (442) 
[97, 98]

>  <energy_score>  (442) 
-20.716177199419377

>  <distance_score>  (442) 
2.5085700923048098

>  <path>  (442) 
/opt/xchem-fragalysis-2/maxwin/BulkDock/SCRATCH/511021/C62098-P98/C62098-P98.minimised.mol

>  <scratch_subdir>  (442) 
/opt/xchem-fragalysis-2/maxwin/BulkDock/SCRATCH/511021/C62098-P98

>  <fragmenstein_runtime>  (442) 
2.5592706203460693

>  <fragmenstein_outcome>  (442) 
too moved

>  <fragmenstein_mode>  (442) 
expansion

>  <fragmenstein_error>  (442) 


$$$$
C62099-P97
     RDKit          3D

 42 43  0  0  0  0  0  0  0  0999 V2000
   17.6559    3.0136   10.9328 C   0  0  0  0  0  0  0  0  0  0  0  0
   17.2313    2.4419   12.2678 C   0  0  0  0  0  0  0  0  0  0  0  0
   17.5258    2.9151   13.2918 O   0  0  0  0  0  0  0  0  0  0  0  0
   16.4146    1.1653   11.9504 N   0  0  0  0  0  0  0  0  0  0  0  0
   15.7114    0.2597   12.8285 C   0  0  0  0  0  0  0  0  0  0  0  0
   14.4896    0.9207   13.4654 C   0  0  0  0  0  0  0  0  0  0  0  0
   13.8191    0.0397   14.4657 C   0  0  0  0  0  0  0  0  0  0  0  0
   13.9294    0.1181   15.8309 C   0  0  0  0  0  0  0  0  0  0  0  0
   13.2555   -0.9460   16.4712 C   0  0  0  0  0  0  0  0  0  0  0  0
   12.6569   -1.8272   15.5986 C   0  0  0  0  0  0  0  0  0  0  0  0
   12.0081   -3.1003   15.8638 C   0  0  0  0  0  0  0  0  0  0  0  0
   10.9926   -3.4469   15.2615 O   0  0  0  0  0  0  0  0  0  0  0  0
   12.6521   -4.0703   16.8800 C   0  0  0  0  0  0  0  0  0  0  0  0
   13.3702   -3.5078   17.9770 O   0  0  0  0  0  0  0  0  0  0  0  0
   14.4014   -4.2854   18.4188 C   0  0  0  0  0  0  0  0  0  0  0  0
   14.2889   -5.4504   18.7606 O   0  0  0  0  0  0  0  0  0  0  0  0
   15.7185   -3.5259   18.3202 C   0  0  0  0  0  0  0  0  0  0  0  0
   15.8865   -3.1233   16.8728 C   0  0  0  0  0  0  0  0  0  0  0  0
   16.2192   -4.2582   15.8363 C   0  0  0  0  0  0  0  0  0  0  0  0
   16.2249   -3.0223   14.8504 C   0  0  0  0  0  0  0  0  0  0  0  0
   15.7126   -2.7657   13.7885 O   0  0  0  0  0  0  0  0  0  0  0  0
   16.8677   -2.1982   16.0778 C   0  0  0  0  0  0  0  0  0  0  0  0
   12.7636   -1.2215   13.9971 S   0  0  0  0  0  0  0  0  0  0  0  0
   16.7786    3.2020   10.3078 H   0  0  0  0  0  0  0  0  0  0  0  0
   18.1765    3.9623   11.0933 H   0  0  0  0  0  0  0  0  0  0  0  0
   18.3349    2.3193   10.4306 H   0  0  0  0  0  0  0  0  0  0  0  0
   16.4176    1.0012   10.9501 H   0  0  0  0  0  0  0  0  0  0  0  0
   15.4301   -0.6165   12.2365 H   0  0  0  0  0  0  0  0  0  0  0  0
   16.4224   -0.0482   13.6022 H   0  0  0  0  0  0  0  0  0  0  0  0
   14.7901    1.8578   13.9524 H   0  0  0  0  0  0  0  0  0  0  0  0
   13.7775    1.2113   12.6819 H   0  0  0  0  0  0  0  0  0  0  0  0
   14.5142    0.8760   16.3400 H   0  0  0  0  0  0  0  0  0  0  0  0
   13.3093   -1.0841   17.5358 H   0  0  0  0  0  0  0  0  0  0  0  0
   13.3081   -4.7271   16.3063 H   0  0  0  0  0  0  0  0  0  0  0  0
   11.8459   -4.6841   17.2692 H   0  0  0  0  0  0  0  0  0  0  0  0
   15.6675   -2.6555   18.9820 H   0  0  0  0  0  0  0  0  0  0  0  0
   16.5378   -4.1669   18.6589 H   0  0  0  0  0  0  0  0  0  0  0  0
   14.9200   -2.6775   16.6470 H   0  0  0  0  0  0  0  0  0  0  0  0
   17.1871   -4.7518   15.9613 H   0  0  0  0  0  0  0  0  0  0  0  0
   15.4429   -5.0028   15.7008 H   0  0  0  0  0  0  0  0  0  0  0  0
   16.6434   -1.1323   16.1065 H   0  0  0  0  0  0  0  0  0  0  0  0
   17.9338   -2.3708   16.2438 H   0  0  0  0  0  0  0  0  0  0  0  0
  1  2  1  0
  2  3  2  0
  2  4  1  0
  4  5  1  0
  5  6  1  0
  6  7  1  0
  7  8  2  0
  8  9  1  0
  9 10  2  0
 10 11  1  0
 11 12  2  0
 11 13  1  0
 13 14  1  0
 14 15  1  0
 15 16  2  0
 15 17  1  0
 17 18  1  0
 18 19  1  0
 19 20  1  0
 20 21  2  0
 20 22  1  0
 10 23  1  0
 23  7  1  0
 22 18  1  0
  1 24  1  0
  1 25  1  0
  1 26  1  0
  4 27  1  0
  5 28  1  0
  5 29  1  0
  6 30  1  0
  6 31  1  0
  8 32  1  0
  9 33  1  0
 13 34  1  0
 13 35  1  0
 17 36  1  0
 17 37  1  0
 18 38  1  0
 19 39  1  0
 19 40  1  0
 22 41  1  0
 22 42  1  0
M  END
>  <Energy>  (443) 
74.190323877930794

>  <compound_id>  (443) 
62099

>  <target_id>  (443) 
1

>  <reference_id>  (443) 
97

>  <inspiration_ids>  (443) 
[97, 98]

>  <energy_score>  (443) 
4.726800747392019

>  <distance_score>  (443) 
3.0161135231837606

>  <path>  (443) 
/opt/xchem-fragalysis-2/maxwin/BulkDock/SCRATCH/511021/C62099-P97/C62099-P97.minimised.mol

>  <scratch_subdir>  (443) 
/opt/xchem-fragalysis-2/maxwin/BulkDock/SCRATCH/511021/C62099-P97

>  <fragmenstein_runtime>  (443) 
2.817385673522949

>  <fragmenstein_outcome>  (443) 
too moved

>  <fragmenstein_mode>  (443) 
expansion

>  <fragmenstein_error>  (443) 


$$$$
C62099-P98
     RDKit          3D

 42 43  0  0  0  0  0  0  0  0999 V2000
   16.2374   -1.3910   10.7928 C   0  0  0  0  0  0  0  0  0  0  0  0
   16.1471   -0.0558   11.4972 C   0  0  0  0  0  0  0  0  0  0  0  0
   16.1016    0.9648   10.9365 O   0  0  0  0  0  0  0  0  0  0  0  0
   16.0802   -0.3720   13.0096 N   0  0  0  0  0  0  0  0  0  0  0  0
   16.0385    0.5108   14.1506 C   0  0  0  0  0  0  0  0  0  0  0  0
   14.6127    0.9462   14.4995 C   0  0  0  0  0  0  0  0  0  0  0  0
   13.7320   -0.2225   14.8342 C   0  0  0  0  0  0  0  0  0  0  0  0
   12.9225   -0.9563   13.9959 C   0  0  0  0  0  0  0  0  0  0  0  0
   12.3645   -2.0917   14.6448 C   0  0  0  0  0  0  0  0  0  0  0  0
   12.8018   -2.2199   15.9516 C   0  0  0  0  0  0  0  0  0  0  0  0
   12.5595   -3.3712   16.8185 C   0  0  0  0  0  0  0  0  0  0  0  0
   11.6591   -4.1586   16.5243 O   0  0  0  0  0  0  0  0  0  0  0  0
   13.4014   -3.6463   18.0933 C   0  0  0  0  0  0  0  0  0  0  0  0
   14.6636   -2.9879   18.1718 O   0  0  0  0  0  0  0  0  0  0  0  0
   15.6155   -3.6396   18.8844 C   0  0  0  0  0  0  0  0  0  0  0  0
   15.4216   -4.5496   19.6751 O   0  0  0  0  0  0  0  0  0  0  0  0
   16.9819   -3.1421   18.4744 C   0  0  0  0  0  0  0  0  0  0  0  0
   17.4318   -3.5771   17.0663 C   0  0  0  0  0  0  0  0  0  0  0  0
   17.1061   -5.0613   16.6613 C   0  0  0  0  0  0  0  0  0  0  0  0
   15.8260   -4.4425   16.0264 C   0  0  0  0  0  0  0  0  0  0  0  0
   14.6724   -4.7859   15.9355 O   0  0  0  0  0  0  0  0  0  0  0  0
   16.5795   -3.1019   15.8360 C   0  0  0  0  0  0  0  0  0  0  0  0
   13.6273   -0.8043   16.4288 S   0  0  0  0  0  0  0  0  0  0  0  0
   17.0517   -1.9901   11.2097 H   0  0  0  0  0  0  0  0  0  0  0  0
   15.2882   -1.9246   10.8917 H   0  0  0  0  0  0  0  0  0  0  0  0
   16.4453   -1.2216    9.7326 H   0  0  0  0  0  0  0  0  0  0  0  0
   16.0662   -1.3777   13.1455 H   0  0  0  0  0  0  0  0  0  0  0  0
   16.5172   -0.0061   14.9876 H   0  0  0  0  0  0  0  0  0  0  0  0
   16.6338    1.3955   13.9022 H   0  0  0  0  0  0  0  0  0  0  0  0
   14.1763    1.4862   13.6492 H   0  0  0  0  0  0  0  0  0  0  0  0
   14.6430    1.6545   15.3363 H   0  0  0  0  0  0  0  0  0  0  0  0
   12.7727   -0.7222   12.9486 H   0  0  0  0  0  0  0  0  0  0  0  0
   11.7407   -2.8319   14.1527 H   0  0  0  0  0  0  0  0  0  0  0  0
   13.5390   -4.7352   18.1292 H   0  0  0  0  0  0  0  0  0  0  0  0
   12.8390   -3.3825   18.9832 H   0  0  0  0  0  0  0  0  0  0  0  0
   17.0010   -2.0497   18.5634 H   0  0  0  0  0  0  0  0  0  0  0  0
   17.6982   -3.5206   19.2139 H   0  0  0  0  0  0  0  0  0  0  0  0
   18.4948   -3.3285   16.9461 H   0  0  0  0  0  0  0  0  0  0  0  0
   17.7830   -5.5021   15.9236 H   0  0  0  0  0  0  0  0  0  0  0  0
   16.9345   -5.7629   17.4789 H   0  0  0  0  0  0  0  0  0  0  0  0
   16.0154   -2.1900   15.9860 H   0  0  0  0  0  0  0  0  0  0  0  0
   17.1243   -3.0491   14.8884 H   0  0  0  0  0  0  0  0  0  0  0  0
  1  2  1  0
  2  3  2  0
  2  4  1  0
  4  5  1  0
  5  6  1  0
  6  7  1  0
  7  8  2  0
  8  9  1  0
  9 10  2  0
 10 11  1  0
 11 12  2  0
 11 13  1  0
 13 14  1  0
 14 15  1  0
 15 16  2  0
 15 17  1  0
 17 18  1  0
 18 19  1  0
 19 20  1  0
 20 21  2  0
 20 22  1  0
 10 23  1  0
 23  7  1  0
 22 18  1  0
  1 24  1  0
  1 25  1  0
  1 26  1  0
  4 27  1  0
  5 28  1  0
  5 29  1  0
  6 30  1  0
  6 31  1  0
  8 32  1  0
  9 33  1  0
 13 34  1  0
 13 35  1  0
 17 36  1  0
 17 37  1  0
 18 38  1  0
 19 39  1  0
 19 40  1  0
 22 41  1  0
 22 42  1  0
M  END
>  <Energy>  (444) 
51.591774204086676

>  <compound_id>  (444) 
62099

>  <target_id>  (444) 
1

>  <reference_id>  (444) 
98

>  <inspiration_ids>  (444) 
[97, 98]

>  <energy_score>  (444) 
-17.871748926453108

>  <distance_score>  (444) 
2.5322059537252577

>  <path>  (444) 
/opt/xchem-fragalysis-2/maxwin/BulkDock/SCRATCH/511021/C62099-P98/C62099-P98.minimised.mol

>  <scratch_subdir>  (444) 
/opt/xchem-fragalysis-2/maxwin/BulkDock/SCRATCH/511021/C62099-P98

>  <fragmenstein_runtime>  (444) 
2.6089513301849365

>  <fragmenstein_outcome>  (444) 
too moved

>  <fragmenstein_mode>  (444) 
expansion

>  <fragmenstein_error>  (444) 


$$$$
C62102-P97
     RDKit          3D

 25 25  0  0  0  0  0  0  0  0999 V2000
   14.9088    1.3560   14.4780 C   0  0  0  0  0  0  0  0  0  0  0  0
   15.7359    0.5789   13.4733 C   0  0  0  0  0  0  0  0  0  0  0  0
   15.9727   -0.7440   13.9727 N   0  0  0  0  0  0  0  0  0  0  0  0
   16.8996   -1.2388   15.1165 C   0  0  0  0  0  0  0  0  0  0  0  0
   17.6681   -0.6545   15.7737 O   0  0  0  0  0  0  0  0  0  0  0  0
   16.5584   -2.7223   15.3523 C   0  0  0  0  0  0  0  0  0  0  0  0
   15.5472   -2.8346   16.4064 N   0  0  0  0  0  0  0  0  0  0  0  0
   14.2126   -2.3758   16.0683 C   0  0  0  0  0  0  0  0  0  0  0  0
   13.3586   -3.1881   16.8596 N   0  0  0  0  0  0  0  0  0  0  0  0
   14.0147   -4.2571   17.4126 C   0  0  0  0  0  0  0  0  0  0  0  0
   13.5528   -5.1174   18.1382 O   0  0  0  0  0  0  0  0  0  0  0  0
   15.4311   -4.1990   16.9199 C   0  0  0  0  0  0  0  0  0  0  0  0
   15.4235    1.4353   15.4415 H   0  0  0  0  0  0  0  0  0  0  0  0
   13.9447    0.8673   14.6551 H   0  0  0  0  0  0  0  0  0  0  0  0
   14.7164    2.3686   14.1103 H   0  0  0  0  0  0  0  0  0  0  0  0
   15.2218    0.4983   12.5117 H   0  0  0  0  0  0  0  0  0  0  0  0
   16.7049    1.0659   13.3301 H   0  0  0  0  0  0  0  0  0  0  0  0
   15.3722   -1.5014   13.6723 H   0  0  0  0  0  0  0  0  0  0  0  0
   16.2534   -3.2149   14.4231 H   0  0  0  0  0  0  0  0  0  0  0  0
   17.4940   -3.2014   15.6688 H   0  0  0  0  0  0  0  0  0  0  0  0
   14.0582   -1.3274   16.3379 H   0  0  0  0  0  0  0  0  0  0  0  0
   13.9337   -2.5323   15.0234 H   0  0  0  0  0  0  0  0  0  0  0  0
   12.3720   -3.0473   17.0249 H   0  0  0  0  0  0  0  0  0  0  0  0
   15.5588   -4.9615   16.1450 H   0  0  0  0  0  0  0  0  0  0  0  0
   16.1276   -4.3664   17.7455 H   0  0  0  0  0  0  0  0  0  0  0  0
  1  2  1  0
  2  3  1  0
  3  4  1  0
  4  5  2  0
  4  6  1  0
  6  7  1  0
  7  8  1  0
  8  9  1  0
  9 10  1  0
 10 11  2  0
 10 12  1  0
 12  7  1  0
  1 13  1  0
  1 14  1  0
  1 15  1  0
  2 16  1  0
  2 17  1  0
  3 18  1  0
  6 19  1  0
  6 20  1  0
  8 21  1  0
  8 22  1  0
  9 23  1  0
 12 24  1  0
 12 25  1  0
M  END
>  <Energy>  (445) 
12.718839803533031

>  <compound_id>  (445) 
62102

>  <target_id>  (445) 
1

>  <reference_id>  (445) 
97

>  <inspiration_ids>  (445) 
[97, 98]

>  <energy_score>  (445) 
-10.660597365153933

>  <distance_score>  (445) 
1.7367307735739441

>  <path>  (445) 
/opt/xchem-fragalysis-2/maxwin/BulkDock/SCRATCH/511021/C62102-P97/C62102-P97.minimised.mol

>  <scratch_subdir>  (445) 
/opt/xchem-fragalysis-2/maxwin/BulkDock/SCRATCH/511021/C62102-P97

>  <fragmenstein_runtime>  (445) 
0.8609147071838379

>  <fragmenstein_outcome>  (445) 
too moved

>  <fragmenstein_mode>  (445) 
expansion

>  <fragmenstein_error>  (445) 


$$$$
C62102-P98
     RDKit          3D

 25 25  0  0  0  0  0  0  0  0999 V2000
   16.0201    1.1452   14.5501 C   0  0  0  0  0  0  0  0  0  0  0  0
   17.3013    0.3439   14.7077 C   0  0  0  0  0  0  0  0  0  0  0  0
   17.0019   -0.9022   15.3533 N   0  0  0  0  0  0  0  0  0  0  0  0
   16.9252   -1.2635   16.8642 C   0  0  0  0  0  0  0  0  0  0  0  0
   17.1693   -0.6215   17.8090 O   0  0  0  0  0  0  0  0  0  0  0  0
   16.3284   -2.6886   16.9447 C   0  0  0  0  0  0  0  0  0  0  0  0
   14.8675   -2.5981   17.0203 N   0  0  0  0  0  0  0  0  0  0  0  0
   14.2240   -1.9592   15.8865 C   0  0  0  0  0  0  0  0  0  0  0  0
   12.9028   -2.4598   15.9272 N   0  0  0  0  0  0  0  0  0  0  0  0
   12.8540   -3.6659   16.5776 C   0  0  0  0  0  0  0  0  0  0  0  0
   11.9026   -4.4166   16.5638 O   0  0  0  0  0  0  0  0  0  0  0  0
   14.2033   -3.8910   17.2145 C   0  0  0  0  0  0  0  0  0  0  0  0
   16.2270    2.0993   14.0560 H   0  0  0  0  0  0  0  0  0  0  0  0
   15.5638    1.3557   15.5233 H   0  0  0  0  0  0  0  0  0  0  0  0
   15.2864    0.5990   13.9476 H   0  0  0  0  0  0  0  0  0  0  0  0
   18.0147    0.8920   15.3299 H   0  0  0  0  0  0  0  0  0  0  0  0
   17.7532    0.1279   13.7358 H   0  0  0  0  0  0  0  0  0  0  0  0
   16.7970   -1.7237   14.7978 H   0  0  0  0  0  0  0  0  0  0  0  0
   16.6635   -3.3018   16.1004 H   0  0  0  0  0  0  0  0  0  0  0  0
   16.7281   -3.1507   17.8554 H   0  0  0  0  0  0  0  0  0  0  0  0
   14.1908   -0.8707   15.9746 H   0  0  0  0  0  0  0  0  0  0  0  0
   14.6483   -2.2550   14.9215 H   0  0  0  0  0  0  0  0  0  0  0  0
   12.1630   -2.2153   15.2819 H   0  0  0  0  0  0  0  0  0  0  0  0
   14.7029   -4.7042   16.6787 H   0  0  0  0  0  0  0  0  0  0  0  0
   14.0911   -4.1258   18.2756 H   0  0  0  0  0  0  0  0  0  0  0  0
  1  2  1  0
  2  3  1  0
  3  4  1  0
  4  5  2  0
  4  6  1  0
  6  7  1  0
  7  8  1  0
  8  9  1  0
  9 10  1  0
 10 11  2  0
 10 12  1  0
 12  7  1  0
  1 13  1  0
  1 14  1  0
  1 15  1  0
  2 16  1  0
  2 17  1  0
  3 18  1  0
  6 19  1  0
  6 20  1  0
  8 21  1  0
  8 22  1  0
  9 23  1  0
 12 24  1  0
 12 25  1  0
M  END
>  <Energy>  (446) 
12.765639239516794

>  <compound_id>  (446) 
62102

>  <target_id>  (446) 
1

>  <reference_id>  (446) 
98

>  <inspiration_ids>  (446) 
[97, 98]

>  <energy_score>  (446) 
-10.613797929170232

>  <distance_score>  (446) 
1.6468812474308636

>  <path>  (446) 
/opt/xchem-fragalysis-2/maxwin/BulkDock/SCRATCH/511021/C62102-P98/C62102-P98.minimised.mol

>  <scratch_subdir>  (446) 
/opt/xchem-fragalysis-2/maxwin/BulkDock/SCRATCH/511021/C62102-P98

>  <fragmenstein_runtime>  (446) 
0.9867322444915771

>  <fragmenstein_outcome>  (446) 
too moved

>  <fragmenstein_mode>  (446) 
expansion

>  <fragmenstein_error>  (446) 


$$$$
C62103-P97
     RDKit          3D

 24 24  0  0  0  0  0  0  0  0999 V2000
   15.5342    0.9295   14.6635 C   0  0  0  0  0  0  0  0  0  0  0  0
   16.4605    0.7221   15.8436 C   0  0  0  0  0  0  0  0  0  0  0  0
   16.0127   -0.3760   16.6548 N   0  0  0  0  0  0  0  0  0  0  0  0
   14.9600   -0.4228   17.7961 C   0  0  0  0  0  0  0  0  0  0  0  0
   14.3546    0.4367   18.3009 O   0  0  0  0  0  0  0  0  0  0  0  0
   14.8442   -1.8977   18.2409 C   0  0  0  0  0  0  0  0  0  0  0  0
   14.0113   -2.7938   17.4213 N   0  0  0  0  0  0  0  0  0  0  0  0
   14.5609   -4.0666   17.4991 C   0  0  0  0  0  0  0  0  0  0  0  0
   14.3976   -4.8933   18.3849 O   0  0  0  0  0  0  0  0  0  0  0  0
   15.4780   -4.2615   16.3085 C   0  0  0  0  0  0  0  0  0  0  0  0
   15.1191   -3.1156   15.5149 N   0  0  0  0  0  0  0  0  0  0  0  0
   13.9891   -2.5499   16.0698 C   0  0  0  0  0  0  0  0  0  0  0  0
   12.7740   -1.8468   15.1858 S   0  0  0  0  0  0  0  0  0  0  0  0
   15.4947    0.0352   14.0330 H   0  0  0  0  0  0  0  0  0  0  0  0
   15.8830    1.7647   14.0483 H   0  0  0  0  0  0  0  0  0  0  0  0
   14.5156    1.1545   14.9959 H   0  0  0  0  0  0  0  0  0  0  0  0
   16.4743    1.6200   16.4686 H   0  0  0  0  0  0  0  0  0  0  0  0
   17.4778    0.5021   15.5080 H   0  0  0  0  0  0  0  0  0  0  0  0
   16.4036   -1.3016   16.5157 H   0  0  0  0  0  0  0  0  0  0  0  0
   14.4460   -1.9182   19.2618 H   0  0  0  0  0  0  0  0  0  0  0  0
   15.8671   -2.2917   18.3357 H   0  0  0  0  0  0  0  0  0  0  0  0
   16.5287   -4.1911   16.5952 H   0  0  0  0  0  0  0  0  0  0  0  0
   15.2593   -5.1920   15.7945 H   0  0  0  0  0  0  0  0  0  0  0  0
   15.2610   -3.0881   14.5096 H   0  0  0  0  0  0  0  0  0  0  0  0
  1  2  1  0
  2  3  1  0
  3  4  1  0
  4  5  2  0
  4  6  1  0
  6  7  1  0
  7  8  1  0
  8  9  2  0
  8 10  1  0
 10 11  1  0
 11 12  1  0
 12 13  2  0
 12  7  1  0
  1 14  1  0
  1 15  1  0
  1 16  1  0
  2 17  1  0
  2 18  1  0
  3 19  1  0
  6 20  1  0
  6 21  1  0
 10 22  1  0
 10 23  1  0
 11 24  1  0
M  END
>  <Energy>  (447) 
23.081953067544926

>  <compound_id>  (447) 
62103

>  <target_id>  (447) 
1

>  <reference_id>  (447) 
97

>  <inspiration_ids>  (447) 
[97, 98]

>  <energy_score>  (447) 
47.527869025932645

>  <distance_score>  (447) 
2.372910194027647

>  <path>  (447) 
/opt/xchem-fragalysis-2/maxwin/BulkDock/SCRATCH/511021/C62103-P97/C62103-P97.minimised.mol

>  <scratch_subdir>  (447) 
/opt/xchem-fragalysis-2/maxwin/BulkDock/SCRATCH/511021/C62103-P97

>  <fragmenstein_runtime>  (447) 
1.565272331237793

>  <fragmenstein_outcome>  (447) 
too moved

>  <fragmenstein_mode>  (447) 
expansion

>  <fragmenstein_error>  (447) 


$$$$
C62103-P98
     RDKit          3D

 24 24  0  0  0  0  0  0  0  0999 V2000
   15.4158    1.5816   15.0665 C   0  0  0  0  0  0  0  0  0  0  0  0
   16.7114    0.8456   14.7974 C   0  0  0  0  0  0  0  0  0  0  0  0
   16.4658   -0.5671   14.7836 N   0  0  0  0  0  0  0  0  0  0  0  0
   16.3773   -1.5866   15.9521 C   0  0  0  0  0  0  0  0  0  0  0  0
   16.5671   -1.4448   17.0960 O   0  0  0  0  0  0  0  0  0  0  0  0
   15.8599   -2.9048   15.3612 C   0  0  0  0  0  0  0  0  0  0  0  0
   14.5121   -3.1007   15.8720 N   0  0  0  0  0  0  0  0  0  0  0  0
   14.2353   -4.0294   16.8474 C   0  0  0  0  0  0  0  0  0  0  0  0
   14.9962   -4.8104   17.4020 O   0  0  0  0  0  0  0  0  0  0  0  0
   12.7513   -4.0069   17.0917 C   0  0  0  0  0  0  0  0  0  0  0  0
   12.3035   -3.0062   16.1699 N   0  0  0  0  0  0  0  0  0  0  0  0
   13.3407   -2.5766   15.3815 C   0  0  0  0  0  0  0  0  0  0  0  0
   13.0369   -1.6536   14.0418 S   0  0  0  0  0  0  0  0  0  0  0  0
   14.6822    1.3887   14.2771 H   0  0  0  0  0  0  0  0  0  0  0  0
   15.5931    2.6607   15.1075 H   0  0  0  0  0  0  0  0  0  0  0  0
   14.9722    1.2717   16.0188 H   0  0  0  0  0  0  0  0  0  0  0  0
   17.4350    1.0579   15.5899 H   0  0  0  0  0  0  0  0  0  0  0  0
   17.1353    1.1308   13.8308 H   0  0  0  0  0  0  0  0  0  0  0  0
   16.1553   -1.0078   13.9249 H   0  0  0  0  0  0  0  0  0  0  0  0
   16.5236   -3.7092   15.6951 H   0  0  0  0  0  0  0  0  0  0  0  0
   15.8518   -2.9037   14.2693 H   0  0  0  0  0  0  0  0  0  0  0  0
   12.3007   -4.9499   16.8069 H   0  0  0  0  0  0  0  0  0  0  0  0
   12.5734   -3.7026   18.1169 H   0  0  0  0  0  0  0  0  0  0  0  0
   11.3566   -2.9376   15.8180 H   0  0  0  0  0  0  0  0  0  0  0  0
  1  2  1  0
  2  3  1  0
  3  4  1  0
  4  5  2  0
  4  6  1  0
  6  7  1  0
  7  8  1  0
  8  9  2  0
  8 10  1  0
 10 11  1  0
 11 12  1  0
 12 13  2  0
 12  7  1  0
  1 14  1  0
  1 15  1  0
  1 16  1  0
  2 17  1  0
  2 18  1  0
  3 19  1  0
  6 20  1  0
  6 21  1  0
 10 22  1  0
 10 23  1  0
 11 24  1  0
M  END
>  <Energy>  (448) 
-22.266091118666466

>  <compound_id>  (448) 
62103

>  <target_id>  (448) 
1

>  <reference_id>  (448) 
98

>  <inspiration_ids>  (448) 
[97, 98]

>  <energy_score>  (448) 
2.1798248397217037

>  <distance_score>  (448) 
1.7106960544697314

>  <path>  (448) 
/opt/xchem-fragalysis-2/maxwin/BulkDock/SCRATCH/511021/C62103-P98/C62103-P98.minimised.mol

>  <scratch_subdir>  (448) 
/opt/xchem-fragalysis-2/maxwin/BulkDock/SCRATCH/511021/C62103-P98

>  <fragmenstein_runtime>  (448) 
1.4320268630981445

>  <fragmenstein_outcome>  (448) 
too moved

>  <fragmenstein_mode>  (448) 
expansion

>  <fragmenstein_error>  (448) 


$$$$
C5415-P97
     RDKit          3D

 28 28  0  0  0  0  0  0  0  0999 V2000
   15.6976    1.3311   14.2251 C   0  0  0  0  0  0  0  0  0  0  0  0
   16.8261    0.8691   15.1237 C   0  0  0  0  0  0  0  0  0  0  0  0
   16.3493   -0.1769   15.9780 N   0  0  0  0  0  0  0  0  0  0  0  0
   15.5681   -0.1071   17.3118 C   0  0  0  0  0  0  0  0  0  0  0  0
   15.2596    0.8125   17.9599 O   0  0  0  0  0  0  0  0  0  0  0  0
   15.2039   -1.5579   17.6674 C   0  0  0  0  0  0  0  0  0  0  0  0
   14.7426   -2.3208   16.4751 N   0  0  0  0  0  0  0  0  0  0  0  0
   14.4951   -3.7252   16.8476 C   0  0  0  0  0  0  0  0  0  0  0  0
   13.0404   -4.0199   17.2017 C   0  0  0  0  0  0  0  0  0  0  0  0
   12.1323   -3.6076   16.1638 N   0  0  0  0  0  0  0  0  0  0  0  0
   12.4905   -2.6034   15.3053 C   0  0  0  0  0  0  0  0  0  0  0  0
   11.9303   -2.4743   14.2240 O   0  0  0  0  0  0  0  0  0  0  0  0
   13.5557   -1.6495   15.8383 C   0  0  0  0  0  0  0  0  0  0  0  0
   14.8471    1.6968   14.8105 H   0  0  0  0  0  0  0  0  0  0  0  0
   15.3392    0.5132   13.5910 H   0  0  0  0  0  0  0  0  0  0  0  0
   16.0377    2.1421   13.5738 H   0  0  0  0  0  0  0  0  0  0  0  0
   17.1685    1.6960   15.7526 H   0  0  0  0  0  0  0  0  0  0  0  0
   17.6652    0.4821   14.5394 H   0  0  0  0  0  0  0  0  0  0  0  0
   16.3701   -1.1409   15.6455 H   0  0  0  0  0  0  0  0  0  0  0  0
   14.4389   -1.5428   18.4496 H   0  0  0  0  0  0  0  0  0  0  0  0
   16.1112   -2.0132   18.0827 H   0  0  0  0  0  0  0  0  0  0  0  0
   14.7877   -4.3427   15.9941 H   0  0  0  0  0  0  0  0  0  0  0  0
   15.1509   -4.0496   17.6653 H   0  0  0  0  0  0  0  0  0  0  0  0
   12.9023   -5.0879   17.3400 H   0  0  0  0  0  0  0  0  0  0  0  0
   12.7724   -3.5155   18.1278 H   0  0  0  0  0  0  0  0  0  0  0  0
   11.4198   -4.2453   15.8236 H   0  0  0  0  0  0  0  0  0  0  0  0
   13.0400   -0.9897   16.5474 H   0  0  0  0  0  0  0  0  0  0  0  0
   13.9075   -1.0436   14.9981 H   0  0  0  0  0  0  0  0  0  0  0  0
  1  2  1  0
  2  3  1  0
  3  4  1  0
  4  5  2  0
  4  6  1  0
  6  7  1  0
  7  8  1  0
  8  9  1  0
  9 10  1  0
 10 11  1  0
 11 12  2  0
 11 13  1  0
 13  7  1  0
  1 14  1  0
  1 15  1  0
  1 16  1  0
  2 17  1  0
  2 18  1  0
  3 19  1  0
  6 20  1  0
  6 21  1  0
  8 22  1  0
  8 23  1  0
  9 24  1  0
  9 25  1  0
 10 26  1  0
 13 27  1  0
 13 28  1  0
M  END
>  <Energy>  (449) 
95.065619561869951

>  <compound_id>  (449) 
5415

>  <target_id>  (449) 
1

>  <reference_id>  (449) 
97

>  <inspiration_ids>  (449) 
[97, 98]

>  <energy_score>  (449) 
-17.029778131229705

>  <distance_score>  (449) 
2.11890983909761

>  <path>  (449) 
/opt/xchem-fragalysis-2/maxwin/BulkDock/SCRATCH/511021/C5415-P97/C5415-P97.minimised.mol

>  <scratch_subdir>  (449) 
/opt/xchem-fragalysis-2/maxwin/BulkDock/SCRATCH/511021/C5415-P97

>  <fragmenstein_runtime>  (449) 
2.4277503490448

>  <fragmenstein_outcome>  (449) 
too moved

>  <fragmenstein_mode>  (449) 
expansion

>  <fragmenstein_error>  (449) 


$$$$
C5415-P98
     RDKit          3D

 28 28  0  0  0  0  0  0  0  0999 V2000
   15.6723    0.9420   13.8721 C   0  0  0  0  0  0  0  0  0  0  0  0
   16.5562    1.1446   15.0832 C   0  0  0  0  0  0  0  0  0  0  0  0
   15.9990    0.4275   16.1913 N   0  0  0  0  0  0  0  0  0  0  0  0
   16.2920   -1.0056   16.7152 C   0  0  0  0  0  0  0  0  0  0  0  0
   17.0862   -1.7894   16.3705 O   0  0  0  0  0  0  0  0  0  0  0  0
   15.2219   -1.3033   17.7794 C   0  0  0  0  0  0  0  0  0  0  0  0
   14.0951   -2.0938   17.2605 N   0  0  0  0  0  0  0  0  0  0  0  0
   14.4334   -3.5077   17.0708 C   0  0  0  0  0  0  0  0  0  0  0  0
   13.1180   -4.2737   16.9594 C   0  0  0  0  0  0  0  0  0  0  0  0
   12.1759   -3.6846   16.0368 N   0  0  0  0  0  0  0  0  0  0  0  0
   12.2671   -2.4053   15.5745 C   0  0  0  0  0  0  0  0  0  0  0  0
   11.4213   -1.9885   14.7887 O   0  0  0  0  0  0  0  0  0  0  0  0
   13.4689   -1.5607   16.0226 C   0  0  0  0  0  0  0  0  0  0  0  0
   14.6518    1.2908   14.0639 H   0  0  0  0  0  0  0  0  0  0  0  0
   15.6157   -0.1165   13.5962 H   0  0  0  0  0  0  0  0  0  0  0  0
   16.0675    1.4955   13.0148 H   0  0  0  0  0  0  0  0  0  0  0  0
   17.5617    0.7600   14.8899 H   0  0  0  0  0  0  0  0  0  0  0  0
   16.6161    2.2020   15.3551 H   0  0  0  0  0  0  0  0  0  0  0  0
   15.2936    0.8629   16.7728 H   0  0  0  0  0  0  0  0  0  0  0  0
   15.7114   -1.8177   18.6158 H   0  0  0  0  0  0  0  0  0  0  0  0
   14.8316   -0.3770   18.2147 H   0  0  0  0  0  0  0  0  0  0  0  0
   15.0463   -3.6557   16.1734 H   0  0  0  0  0  0  0  0  0  0  0  0
   14.9923   -3.9068   17.9253 H   0  0  0  0  0  0  0  0  0  0  0  0
   13.3024   -5.2927   16.6246 H   0  0  0  0  0  0  0  0  0  0  0  0
   12.6348   -4.3242   17.9365 H   0  0  0  0  0  0  0  0  0  0  0  0
   11.3473   -4.2021   15.7635 H   0  0  0  0  0  0  0  0  0  0  0  0
   13.1005   -0.5472   16.2144 H   0  0  0  0  0  0  0  0  0  0  0  0
   14.1732   -1.5429   15.1841 H   0  0  0  0  0  0  0  0  0  0  0  0
  1  2  1  0
  2  3  1  0
  3  4  1  0
  4  5  2  0
  4  6  1  0
  6  7  1  0
  7  8  1  0
  8  9  1  0
  9 10  1  0
 10 11  1  0
 11 12  2  0
 11 13  1  0
 13  7  1  0
  1 14  1  0
  1 15  1  0
  1 16  1  0
  2 17  1  0
  2 18  1  0
  3 19  1  0
  6 20  1  0
  6 21  1  0
  8 22  1  0
  8 23  1  0
  9 24  1  0
  9 25  1  0
 10 26  1  0
 13 27  1  0
 13 28  1  0
M  END
>  <Energy>  (450) 
94.311366110441554

>  <compound_id>  (450) 
5415

>  <target_id>  (450) 
1

>  <reference_id>  (450) 
98

>  <inspiration_ids>  (450) 
[97, 98]

>  <energy_score>  (450) 
-17.78403158265843

>  <distance_score>  (450) 
2.485330447123192

>  <path>  (450) 
/opt/xchem-fragalysis-2/maxwin/BulkDock/SCRATCH/511021/C5415-P98/C5415-P98.minimised.mol

>  <scratch_subdir>  (450) 
/opt/xchem-fragalysis-2/maxwin/BulkDock/SCRATCH/511021/C5415-P98

>  <fragmenstein_runtime>  (450) 
3.1252896785736084

>  <fragmenstein_outcome>  (450) 
too moved

>  <fragmenstein_mode>  (450) 
expansion

>  <fragmenstein_error>  (450) 


$$$$
C62110-P97
     RDKit          3D

 28 28  0  0  0  0  0  0  0  0999 V2000
   16.1683    0.3312   14.1758 C   0  0  0  0  0  0  0  0  0  0  0  0
   16.8575   -1.0175   14.0212 C   0  0  0  0  0  0  0  0  0  0  0  0
   16.2815   -1.9578   14.9393 N   0  0  0  0  0  0  0  0  0  0  0  0
   16.5915   -2.2230   16.4364 C   0  0  0  0  0  0  0  0  0  0  0  0
   17.4146   -1.7709   17.1299 O   0  0  0  0  0  0  0  0  0  0  0  0
   15.5137   -3.2066   16.9374 C   0  0  0  0  0  0  0  0  0  0  0  0
   14.1772   -2.9712   16.3639 N   0  0  0  0  0  0  0  0  0  0  0  0
   13.6400   -1.6285   16.4346 C   0  0  0  0  0  0  0  0  0  0  0  0
   12.4872   -1.4082   15.4685 C   0  0  0  0  0  0  0  0  0  0  0  0
   11.7591   -2.6880   15.1348 C   0  0  0  0  0  0  0  0  0  0  0  0
   11.9760   -3.6794   16.1441 N   0  0  0  0  0  0  0  0  0  0  0  0
   13.2353   -3.9657   16.5927 C   0  0  0  0  0  0  0  0  0  0  0  0
   13.4859   -5.0134   17.1744 O   0  0  0  0  0  0  0  0  0  0  0  0
   16.6051    1.0609   13.4873 H   0  0  0  0  0  0  0  0  0  0  0  0
   15.0984    0.2522   13.9571 H   0  0  0  0  0  0  0  0  0  0  0  0
   16.2753    0.7150   15.1959 H   0  0  0  0  0  0  0  0  0  0  0  0
   16.7347   -1.4081   13.0075 H   0  0  0  0  0  0  0  0  0  0  0  0
   17.9226   -0.9222   14.2512 H   0  0  0  0  0  0  0  0  0  0  0  0
   15.4396   -2.4622   14.6720 H   0  0  0  0  0  0  0  0  0  0  0  0
   15.8413   -4.2238   16.6953 H   0  0  0  0  0  0  0  0  0  0  0  0
   15.4314   -3.1160   18.0268 H   0  0  0  0  0  0  0  0  0  0  0  0
   14.4062   -0.8729   16.2485 H   0  0  0  0  0  0  0  0  0  0  0  0
   13.3076   -1.4632   17.4576 H   0  0  0  0  0  0  0  0  0  0  0  0
   12.8537   -0.9598   14.5370 H   0  0  0  0  0  0  0  0  0  0  0  0
   11.7958   -0.6738   15.8985 H   0  0  0  0  0  0  0  0  0  0  0  0
   12.1125   -3.0915   14.1807 H   0  0  0  0  0  0  0  0  0  0  0  0
   10.6829   -2.5169   15.0435 H   0  0  0  0  0  0  0  0  0  0  0  0
   11.3444   -4.4743   16.2102 H   0  0  0  0  0  0  0  0  0  0  0  0
  1  2  1  0
  2  3  1  0
  3  4  1  0
  4  5  2  0
  4  6  1  0
  6  7  1  0
  7  8  1  0
  8  9  1  0
  9 10  1  0
 10 11  1  0
 11 12  1  0
 12 13  2  0
 12  7  1  0
  1 14  1  0
  1 15  1  0
  1 16  1  0
  2 17  1  0
  2 18  1  0
  3 19  1  0
  6 20  1  0
  6 21  1  0
  8 22  1  0
  8 23  1  0
  9 24  1  0
  9 25  1  0
 10 26  1  0
 10 27  1  0
 11 28  1  0
M  END
>  <Energy>  (451) 
-68.09458828969521

>  <compound_id>  (451) 
62110

>  <target_id>  (451) 
1

>  <reference_id>  (451) 
97

>  <inspiration_ids>  (451) 
[97, 98]

>  <energy_score>  (451) 
-5.780418109148037

>  <distance_score>  (451) 
2.5736406738588675

>  <path>  (451) 
/opt/xchem-fragalysis-2/maxwin/BulkDock/SCRATCH/511021/C62110-P97/C62110-P97.minimised.mol

>  <scratch_subdir>  (451) 
/opt/xchem-fragalysis-2/maxwin/BulkDock/SCRATCH/511021/C62110-P97

>  <fragmenstein_runtime>  (451) 
1.8131873607635498

>  <fragmenstein_outcome>  (451) 
too moved

>  <fragmenstein_mode>  (451) 
expansion

>  <fragmenstein_error>  (451) 


$$$$
C62110-P98
     RDKit          3D

 28 28  0  0  0  0  0  0  0  0999 V2000
   15.4567    1.6993   15.3351 C   0  0  0  0  0  0  0  0  0  0  0  0
   16.7094    1.0559   14.7795 C   0  0  0  0  0  0  0  0  0  0  0  0
   16.4691   -0.3439   14.6179 N   0  0  0  0  0  0  0  0  0  0  0  0
   16.9952   -1.5562   15.4295 C   0  0  0  0  0  0  0  0  0  0  0  0
   17.7659   -1.6031   16.3056 O   0  0  0  0  0  0  0  0  0  0  0  0
   16.2400   -2.7846   14.9005 C   0  0  0  0  0  0  0  0  0  0  0  0
   14.8283   -2.7002   15.2909 N   0  0  0  0  0  0  0  0  0  0  0  0
   14.4290   -3.4477   16.4752 C   0  0  0  0  0  0  0  0  0  0  0  0
   13.0955   -2.9772   16.9949 C   0  0  0  0  0  0  0  0  0  0  0  0
   12.1097   -2.9305   15.8541 C   0  0  0  0  0  0  0  0  0  0  0  0
   12.6193   -2.1446   14.7712 N   0  0  0  0  0  0  0  0  0  0  0  0
   13.9308   -2.0989   14.4261 C   0  0  0  0  0  0  0  0  0  0  0  0
   14.2724   -1.5317   13.3899 O   0  0  0  0  0  0  0  0  0  0  0  0
   14.6057    1.5551   14.6605 H   0  0  0  0  0  0  0  0  0  0  0  0
   15.6076    2.7748   15.4694 H   0  0  0  0  0  0  0  0  0  0  0  0
   15.1877    1.2676   16.3054 H   0  0  0  0  0  0  0  0  0  0  0  0
   17.5516    1.1938   15.4635 H   0  0  0  0  0  0  0  0  0  0  0  0
   16.9637    1.4737   13.8016 H   0  0  0  0  0  0  0  0  0  0  0  0
   15.8603   -0.6748   13.8647 H   0  0  0  0  0  0  0  0  0  0  0  0
   16.3418   -2.8287   13.8106 H   0  0  0  0  0  0  0  0  0  0  0  0
   16.6861   -3.6956   15.3138 H   0  0  0  0  0  0  0  0  0  0  0  0
   15.1939   -3.3132   17.2483 H   0  0  0  0  0  0  0  0  0  0  0  0
   14.3966   -4.5104   16.2157 H   0  0  0  0  0  0  0  0  0  0  0  0
   13.2297   -1.9650   17.3895 H   0  0  0  0  0  0  0  0  0  0  0  0
   12.7516   -3.6261   17.8032 H   0  0  0  0  0  0  0  0  0  0  0  0
   11.8795   -3.9271   15.4820 H   0  0  0  0  0  0  0  0  0  0  0  0
   11.1707   -2.4650   16.1516 H   0  0  0  0  0  0  0  0  0  0  0  0
   11.9880   -1.8126   14.0488 H   0  0  0  0  0  0  0  0  0  0  0  0
  1  2  1  0
  2  3  1  0
  3  4  1  0
  4  5  2  0
  4  6  1  0
  6  7  1  0
  7  8  1  0
  8  9  1  0
  9 10  1  0
 10 11  1  0
 11 12  1  0
 12 13  2  0
 12  7  1  0
  1 14  1  0
  1 15  1  0
  1 16  1  0
  2 17  1  0
  2 18  1  0
  3 19  1  0
  6 20  1  0
  6 21  1  0
  8 22  1  0
  8 23  1  0
  9 24  1  0
  9 25  1  0
 10 26  1  0
 10 27  1  0
 11 28  1  0
M  END
>  <Energy>  (452) 
-76.966765510592495

>  <compound_id>  (452) 
62110

>  <target_id>  (452) 
1

>  <reference_id>  (452) 
98

>  <inspiration_ids>  (452) 
[97, 98]

>  <energy_score>  (452) 
-14.65259533004525

>  <distance_score>  (452) 
1.9638190895268217

>  <path>  (452) 
/opt/xchem-fragalysis-2/maxwin/BulkDock/SCRATCH/511021/C62110-P98/C62110-P98.minimised.mol

>  <scratch_subdir>  (452) 
/opt/xchem-fragalysis-2/maxwin/BulkDock/SCRATCH/511021/C62110-P98

>  <fragmenstein_runtime>  (452) 
1.584620475769043

>  <fragmenstein_outcome>  (452) 
too moved

>  <fragmenstein_mode>  (452) 
expansion

>  <fragmenstein_error>  (452) 


$$$$
C62111-P97
     RDKit          3D

 26 26  0  0  0  0  0  0  0  0999 V2000
   16.6290   -3.1321   17.6787 C   0  0  0  0  0  0  0  0  0  0  0  0
   15.6485   -2.8737   16.5219 C   0  0  0  0  0  0  0  0  0  0  0  0
   14.1992   -2.7676   17.0487 N   0  0  0  0  0  0  0  0  0  0  0  0
   13.7211   -4.0873   17.6005 C   0  0  0  0  0  0  0  0  0  0  0  0
   13.9792   -4.0884   19.0955 C   0  0  0  0  0  0  0  0  0  0  0  0
   13.1677   -4.9757   17.0709 O   0  0  0  0  0  0  0  0  0  0  0  0
   14.0191   -2.1445   15.6684 C   0  0  0  0  0  0  0  0  0  0  0  0
   12.5201   -2.1888   15.2445 C   0  0  0  0  0  0  0  0  0  0  0  0
   12.4005   -1.0422   14.2537 C   0  0  0  0  0  0  0  0  0  0  0  0
   13.3042   -0.0652   14.7767 N   0  0  0  0  0  0  0  0  0  0  0  0
   14.1369   -0.6161   15.7269 C   0  0  0  0  0  0  0  0  0  0  0  0
   14.8512    0.0206   16.4796 O   0  0  0  0  0  0  0  0  0  0  0  0
   16.5109   -2.3841   18.4688 H   0  0  0  0  0  0  0  0  0  0  0  0
   17.6596   -3.0814   17.3110 H   0  0  0  0  0  0  0  0  0  0  0  0
   16.4950   -4.1274   18.1093 H   0  0  0  0  0  0  0  0  0  0  0  0
   16.0890   -1.9804   16.0520 H   0  0  0  0  0  0  0  0  0  0  0  0
   15.7394   -3.7558   15.8662 H   0  0  0  0  0  0  0  0  0  0  0  0
   14.6993   -4.8748   19.3357 H   0  0  0  0  0  0  0  0  0  0  0  0
   14.3586   -3.1282   19.4533 H   0  0  0  0  0  0  0  0  0  0  0  0
   13.0456   -4.2970   19.6218 H   0  0  0  0  0  0  0  0  0  0  0  0
   14.5417   -2.5669   14.7935 H   0  0  0  0  0  0  0  0  0  0  0  0
   12.2240   -3.1488   14.8145 H   0  0  0  0  0  0  0  0  0  0  0  0
   11.8730   -2.0023   16.1108 H   0  0  0  0  0  0  0  0  0  0  0  0
   11.3911   -0.6282   14.2056 H   0  0  0  0  0  0  0  0  0  0  0  0
   12.7415   -1.3257   13.2545 H   0  0  0  0  0  0  0  0  0  0  0  0
   13.1810    0.9381   14.7223 H   0  0  0  0  0  0  0  0  0  0  0  0
  1  2  1  0
  2  3  1  0
  3  4  1  0
  4  5  1  0
  4  6  2  0
  3  7  1  0
  7  8  1  0
  8  9  1  0
  9 10  1  0
 10 11  1  0
 11 12  2  0
 11  7  1  0
  1 13  1  0
  1 14  1  0
  1 15  1  0
  2 16  1  0
  2 17  1  0
  5 18  1  0
  5 19  1  0
  5 20  1  0
  7 21  1  0
  8 22  1  0
  8 23  1  0
  9 24  1  0
  9 25  1  0
 10 26  1  0
M  END
>  <Energy>  (453) 
82.60432784935881

>  <compound_id>  (453) 
62111

>  <target_id>  (453) 
1

>  <reference_id>  (453) 
97

>  <inspiration_ids>  (453) 
[97, 98]

>  <energy_score>  (453) 
58.70055416747664

>  <distance_score>  (453) 
1.8827506537945562

>  <path>  (453) 
/opt/xchem-fragalysis-2/maxwin/BulkDock/SCRATCH/511021/C62111-P97/C62111-P97.minimised.mol

>  <scratch_subdir>  (453) 
/opt/xchem-fragalysis-2/maxwin/BulkDock/SCRATCH/511021/C62111-P97

>  <fragmenstein_runtime>  (453) 
1.0589008331298828

>  <fragmenstein_outcome>  (453) 
too moved

>  <fragmenstein_mode>  (453) 
expansion

>  <fragmenstein_error>  (453) 


$$$$
C62111-P98
     RDKit          3D

 26 26  0  0  0  0  0  0  0  0999 V2000
   16.5605   -2.5797   18.2077 C   0  0  0  0  0  0  0  0  0  0  0  0
   15.7091   -2.6246   16.9279 C   0  0  0  0  0  0  0  0  0  0  0  0
   14.2134   -2.7923   17.2880 N   0  0  0  0  0  0  0  0  0  0  0  0
   13.9353   -4.1726   17.8396 C   0  0  0  0  0  0  0  0  0  0  0  0
   14.0117   -4.0961   19.3515 C   0  0  0  0  0  0  0  0  0  0  0  0
   13.6267   -5.1629   17.2890 O   0  0  0  0  0  0  0  0  0  0  0  0
   14.0783   -2.2436   15.8727 C   0  0  0  0  0  0  0  0  0  0  0  0
   12.6121   -2.4394   15.3738 C   0  0  0  0  0  0  0  0  0  0  0  0
   12.4695   -1.4170   14.2567 C   0  0  0  0  0  0  0  0  0  0  0  0
   13.2721   -0.3252   14.7113 N   0  0  0  0  0  0  0  0  0  0  0  0
   14.0401   -0.7050   15.7919 C   0  0  0  0  0  0  0  0  0  0  0  0
   14.5902    0.0717   16.5513 O   0  0  0  0  0  0  0  0  0  0  0  0
   16.5681   -3.5417   18.7252 H   0  0  0  0  0  0  0  0  0  0  0  0
   16.1944   -1.8108   18.8952 H   0  0  0  0  0  0  0  0  0  0  0  0
   17.6008   -2.3469   17.9554 H   0  0  0  0  0  0  0  0  0  0  0  0
   16.0459   -1.7210   16.4002 H   0  0  0  0  0  0  0  0  0  0  0  0
   16.0444   -3.5216   16.3804 H   0  0  0  0  0  0  0  0  0  0  0  0
   14.8418   -4.7148   19.7019 H   0  0  0  0  0  0  0  0  0  0  0  0
   14.1438   -3.0727   19.7107 H   0  0  0  0  0  0  0  0  0  0  0  0
   13.0813   -4.4840   19.7737 H   0  0  0  0  0  0  0  0  0  0  0  0
   14.6885   -2.7089   15.0801 H   0  0  0  0  0  0  0  0  0  0  0  0
   12.3992   -3.4572   15.0459 H   0  0  0  0  0  0  0  0  0  0  0  0
   11.9049   -2.2079   16.1811 H   0  0  0  0  0  0  0  0  0  0  0  0
   11.4378   -1.0866   14.1230 H   0  0  0  0  0  0  0  0  0  0  0  0
   12.8757   -1.7766   13.3067 H   0  0  0  0  0  0  0  0  0  0  0  0
   13.0336    0.6514   14.5907 H   0  0  0  0  0  0  0  0  0  0  0  0
  1  2  1  0
  2  3  1  0
  3  4  1  0
  4  5  1  0
  4  6  2  0
  3  7  1  0
  7  8  1  0
  8  9  1  0
  9 10  1  0
 10 11  1  0
 11 12  2  0
 11  7  1  0
  1 13  1  0
  1 14  1  0
  1 15  1  0
  2 16  1  0
  2 17  1  0
  5 18  1  0
  5 19  1  0
  5 20  1  0
  7 21  1  0
  8 22  1  0
  8 23  1  0
  9 24  1  0
  9 25  1  0
 10 26  1  0
M  END
>  <Energy>  (454) 
82.746842524468391

>  <compound_id>  (454) 
62111

>  <target_id>  (454) 
1

>  <reference_id>  (454) 
98

>  <inspiration_ids>  (454) 
[97, 98]

>  <energy_score>  (454) 
58.84306884258646

>  <distance_score>  (454) 
2.1075707061924174

>  <path>  (454) 
/opt/xchem-fragalysis-2/maxwin/BulkDock/SCRATCH/511021/C62111-P98/C62111-P98.minimised.mol

>  <scratch_subdir>  (454) 
/opt/xchem-fragalysis-2/maxwin/BulkDock/SCRATCH/511021/C62111-P98

>  <fragmenstein_runtime>  (454) 
1.4402375221252441

>  <fragmenstein_outcome>  (454) 
too moved

>  <fragmenstein_mode>  (454) 
expansion

>  <fragmenstein_error>  (454) 


$$$$
C62113-P97
     RDKit          3D

 25 25  0  0  0  0  0  0  0  0999 V2000
   16.0303    1.1778   13.4253 C   0  0  0  0  0  0  0  0  0  0  0  0
   15.6255   -0.2754   13.5052 C   0  0  0  0  0  0  0  0  0  0  0  0
   14.9269   -0.4855   14.7328 N   0  0  0  0  0  0  0  0  0  0  0  0
   15.4451   -0.5168   16.1923 C   0  0  0  0  0  0  0  0  0  0  0  0
   16.5084   -0.2999   16.6221 O   0  0  0  0  0  0  0  0  0  0  0  0
   14.2358   -0.7985   17.0798 C   0  0  0  0  0  0  0  0  0  0  0  0
   13.6027   -2.0645   16.7826 N   0  0  0  0  0  0  0  0  0  0  0  0
   14.1270   -3.3201   17.2649 C   0  0  0  0  0  0  0  0  0  0  0  0
   13.0253   -4.2943   16.8993 C   0  0  0  0  0  0  0  0  0  0  0  0
   12.2222   -3.5893   15.9438 N   0  0  0  0  0  0  0  0  0  0  0  0
   12.5762   -2.2676   15.8740 C   0  0  0  0  0  0  0  0  0  0  0  0
   12.0679   -1.4485   15.1323 O   0  0  0  0  0  0  0  0  0  0  0  0
   15.1552    1.8355   13.4692 H   0  0  0  0  0  0  0  0  0  0  0  0
   16.5563    1.3744   12.4859 H   0  0  0  0  0  0  0  0  0  0  0  0
   16.6963    1.4554   14.2493 H   0  0  0  0  0  0  0  0  0  0  0  0
   14.9667   -0.5536   12.6781 H   0  0  0  0  0  0  0  0  0  0  0  0
   16.5111   -0.9173   13.4998 H   0  0  0  0  0  0  0  0  0  0  0  0
   13.9185   -0.6478   14.7251 H   0  0  0  0  0  0  0  0  0  0  0  0
   13.5119    0.0106   16.9334 H   0  0  0  0  0  0  0  0  0  0  0  0
   14.5452   -0.7984   18.1299 H   0  0  0  0  0  0  0  0  0  0  0  0
   15.0575   -3.5385   16.7308 H   0  0  0  0  0  0  0  0  0  0  0  0
   14.3130   -3.2816   18.3417 H   0  0  0  0  0  0  0  0  0  0  0  0
   13.4134   -5.2063   16.4594 H   0  0  0  0  0  0  0  0  0  0  0  0
   12.4142   -4.5329   17.7635 H   0  0  0  0  0  0  0  0  0  0  0  0
   11.4140   -3.9445   15.4479 H   0  0  0  0  0  0  0  0  0  0  0  0
  1  2  1  0
  2  3  1  0
  3  4  1  0
  4  5  2  0
  4  6  1  0
  6  7  1  0
  7  8  1  0
  8  9  1  0
  9 10  1  0
 10 11  1  0
 11 12  2  0
 11  7  1  0
  1 13  1  0
  1 14  1  0
  1 15  1  0
  2 16  1  0
  2 17  1  0
  3 18  1  0
  6 19  1  0
  6 20  1  0
  8 21  1  0
  8 22  1  0
  9 23  1  0
  9 24  1  0
 10 25  1  0
M  END
>  <Energy>  (455) 
-37.736675502041258

>  <compound_id>  (455) 
62113

>  <target_id>  (455) 
1

>  <reference_id>  (455) 
97

>  <inspiration_ids>  (455) 
[97, 98]

>  <energy_score>  (455) 
-7.989251832658539

>  <distance_score>  (455) 
2.689685544025534

>  <path>  (455) 
/opt/xchem-fragalysis-2/maxwin/BulkDock/SCRATCH/511021/C62113-P97/C62113-P97.minimised.mol

>  <scratch_subdir>  (455) 
/opt/xchem-fragalysis-2/maxwin/BulkDock/SCRATCH/511021/C62113-P97

>  <fragmenstein_runtime>  (455) 
1.3370931148529053

>  <fragmenstein_outcome>  (455) 
too moved

>  <fragmenstein_mode>  (455) 
expansion

>  <fragmenstein_error>  (455) 


$$$$
C62113-P98
     RDKit          3D

 25 25  0  0  0  0  0  0  0  0999 V2000
   14.8785    1.8665   15.4073 C   0  0  0  0  0  0  0  0  0  0  0  0
   15.1328    1.1398   14.1088 C   0  0  0  0  0  0  0  0  0  0  0  0
   15.1516   -0.2703   14.3450 N   0  0  0  0  0  0  0  0  0  0  0  0
   16.1872   -1.1531   15.0913 C   0  0  0  0  0  0  0  0  0  0  0  0
   17.1425   -0.8541   15.6928 O   0  0  0  0  0  0  0  0  0  0  0  0
   15.7193   -2.5965   14.9248 C   0  0  0  0  0  0  0  0  0  0  0  0
   14.5242   -2.8658   15.7086 N   0  0  0  0  0  0  0  0  0  0  0  0
   14.5727   -3.4555   17.0232 C   0  0  0  0  0  0  0  0  0  0  0  0
   13.1488   -3.9489   17.2065 C   0  0  0  0  0  0  0  0  0  0  0  0
   12.3780   -3.1602   16.2785 N   0  0  0  0  0  0  0  0  0  0  0  0
   13.2136   -2.6586   15.2955 C   0  0  0  0  0  0  0  0  0  0  0  0
   12.8405   -2.1896   14.2343 O   0  0  0  0  0  0  0  0  0  0  0  0
   13.9242    1.5611   15.8502 H   0  0  0  0  0  0  0  0  0  0  0  0
   14.8457    2.9474   15.2391 H   0  0  0  0  0  0  0  0  0  0  0  0
   15.6651    1.6622   16.1415 H   0  0  0  0  0  0  0  0  0  0  0  0
   14.3524    1.3554   13.3738 H   0  0  0  0  0  0  0  0  0  0  0  0
   16.1055    1.4283   13.6998 H   0  0  0  0  0  0  0  0  0  0  0  0
   14.3913   -0.8576   13.9946 H   0  0  0  0  0  0  0  0  0  0  0  0
   16.5176   -3.2823   15.2255 H   0  0  0  0  0  0  0  0  0  0  0  0
   15.5138   -2.7599   13.8619 H   0  0  0  0  0  0  0  0  0  0  0  0
   15.3009   -4.2699   17.0700 H   0  0  0  0  0  0  0  0  0  0  0  0
   14.8349   -2.6718   17.7410 H   0  0  0  0  0  0  0  0  0  0  0  0
   13.0598   -4.9938   16.8997 H   0  0  0  0  0  0  0  0  0  0  0  0
   12.7974   -3.8305   18.2297 H   0  0  0  0  0  0  0  0  0  0  0  0
   11.4588   -3.4361   15.9585 H   0  0  0  0  0  0  0  0  0  0  0  0
  1  2  1  0
  2  3  1  0
  3  4  1  0
  4  5  2  0
  4  6  1  0
  6  7  1  0
  7  8  1  0
  8  9  1  0
  9 10  1  0
 10 11  1  0
 11 12  2  0
 11  7  1  0
  1 13  1  0
  1 14  1  0
  1 15  1  0
  2 16  1  0
  2 17  1  0
  3 18  1  0
  6 19  1  0
  6 20  1  0
  8 21  1  0
  8 22  1  0
  9 23  1  0
  9 24  1  0
 10 25  1  0
M  END
>  <Energy>  (456) 
-36.695257801929301

>  <compound_id>  (456) 
62113

>  <target_id>  (456) 
1

>  <reference_id>  (456) 
98

>  <inspiration_ids>  (456) 
[97, 98]

>  <energy_score>  (456) 
-6.947834132546511

>  <distance_score>  (456) 
2.0191673047210803

>  <path>  (456) 
/opt/xchem-fragalysis-2/maxwin/BulkDock/SCRATCH/511021/C62113-P98/C62113-P98.minimised.mol

>  <scratch_subdir>  (456) 
/opt/xchem-fragalysis-2/maxwin/BulkDock/SCRATCH/511021/C62113-P98

>  <fragmenstein_runtime>  (456) 
1.1328058242797852

>  <fragmenstein_outcome>  (456) 
too moved

>  <fragmenstein_mode>  (456) 
expansion

>  <fragmenstein_error>  (456) 


$$$$
C62114-P97
     RDKit          3D

 25 25  0  0  0  0  0  0  0  0999 V2000
   16.1011   -0.3661   12.7927 C   0  0  0  0  0  0  0  0  0  0  0  0
   16.1474   -1.7757   13.3512 C   0  0  0  0  0  0  0  0  0  0  0  0
   15.9262   -1.7554   14.7720 N   0  0  0  0  0  0  0  0  0  0  0  0
   16.8425   -1.6376   15.8622 C   0  0  0  0  0  0  0  0  0  0  0  0
   18.0400   -1.6043   15.8776 O   0  0  0  0  0  0  0  0  0  0  0  0
   16.0884   -1.4239   17.1964 C   0  0  0  0  0  0  0  0  0  0  0  0
   14.7932   -2.1078   17.3598 N   0  0  0  0  0  0  0  0  0  0  0  0
   14.8447   -3.5685   17.2645 C   0  0  0  0  0  0  0  0  0  0  0  0
   13.3834   -3.9470   17.0467 C   0  0  0  0  0  0  0  0  0  0  0  0
   12.8143   -2.7198   16.3920 C   0  0  0  0  0  0  0  0  0  0  0  0
   11.7126   -2.5945   15.8864 O   0  0  0  0  0  0  0  0  0  0  0  0
   13.7500   -1.7074   16.5327 N   0  0  0  0  0  0  0  0  0  0  0  0
   16.8729    0.2636   13.2480 H   0  0  0  0  0  0  0  0  0  0  0  0
   16.2628   -0.3790   11.7105 H   0  0  0  0  0  0  0  0  0  0  0  0
   15.1306    0.1017   12.9896 H   0  0  0  0  0  0  0  0  0  0  0  0
   17.1262   -2.2255   13.1591 H   0  0  0  0  0  0  0  0  0  0  0  0
   15.3698   -2.3960   12.8973 H   0  0  0  0  0  0  0  0  0  0  0  0
   14.9792   -1.6657   15.1260 H   0  0  0  0  0  0  0  0  0  0  0  0
   15.9470   -0.3435   17.3211 H   0  0  0  0  0  0  0  0  0  0  0  0
   16.7510   -1.7535   18.0061 H   0  0  0  0  0  0  0  0  0  0  0  0
   15.4387   -3.9150   16.4109 H   0  0  0  0  0  0  0  0  0  0  0  0
   15.2469   -4.0253   18.1741 H   0  0  0  0  0  0  0  0  0  0  0  0
   13.2769   -4.8217   16.4088 H   0  0  0  0  0  0  0  0  0  0  0  0
   12.8764   -4.1091   18.0007 H   0  0  0  0  0  0  0  0  0  0  0  0
   13.4277   -0.7458   16.4566 H   0  0  0  0  0  0  0  0  0  0  0  0
  1  2  1  0
  2  3  1  0
  3  4  1  0
  4  5  2  0
  4  6  1  0
  6  7  1  0
  7  8  1  0
  8  9  1  0
  9 10  1  0
 10 11  2  0
 10 12  1  0
 12  7  1  0
  1 13  1  0
  1 14  1  0
  1 15  1  0
  2 16  1  0
  2 17  1  0
  3 18  1  0
  6 19  1  0
  6 20  1  0
  8 21  1  0
  8 22  1  0
  9 23  1  0
  9 24  1  0
 12 25  1  0
M  END
>  <Energy>  (457) 
45.018561582188255

>  <compound_id>  (457) 
62114

>  <target_id>  (457) 
1

>  <reference_id>  (457) 
97

>  <inspiration_ids>  (457) 
[97, 98]

>  <energy_score>  (457) 
-20.10399084395739

>  <distance_score>  (457) 
1.8283345278555159

>  <path>  (457) 
/opt/xchem-fragalysis-2/maxwin/BulkDock/SCRATCH/511021/C62114-P97/C62114-P97.minimised.mol

>  <scratch_subdir>  (457) 
/opt/xchem-fragalysis-2/maxwin/BulkDock/SCRATCH/511021/C62114-P97

>  <fragmenstein_runtime>  (457) 
1.2735540866851807

>  <fragmenstein_outcome>  (457) 
too moved

>  <fragmenstein_mode>  (457) 
expansion

>  <fragmenstein_error>  (457) 


$$$$
C62114-P98
     RDKit          3D

 25 25  0  0  0  0  0  0  0  0999 V2000
   15.5321    1.7585   15.0816 C   0  0  0  0  0  0  0  0  0  0  0  0
   16.5911    1.0978   15.9423 C   0  0  0  0  0  0  0  0  0  0  0  0
   16.4213   -0.3292   15.9467 N   0  0  0  0  0  0  0  0  0  0  0  0
   16.9446   -1.3406   15.0775 C   0  0  0  0  0  0  0  0  0  0  0  0
   17.7224   -1.2657   14.1699 O   0  0  0  0  0  0  0  0  0  0  0  0
   16.3865   -2.7292   15.4780 C   0  0  0  0  0  0  0  0  0  0  0  0
   15.2091   -2.6233   16.3800 N   0  0  0  0  0  0  0  0  0  0  0  0
   14.8341   -3.9490   16.8996 C   0  0  0  0  0  0  0  0  0  0  0  0
   13.3317   -3.8562   17.1425 C   0  0  0  0  0  0  0  0  0  0  0  0
   12.9068   -2.7859   16.1834 C   0  0  0  0  0  0  0  0  0  0  0  0
   11.7630   -2.4672   15.9047 O   0  0  0  0  0  0  0  0  0  0  0  0
   14.0558   -2.1822   15.7167 N   0  0  0  0  0  0  0  0  0  0  0  0
   14.5272    1.5296   15.4524 H   0  0  0  0  0  0  0  0  0  0  0  0
   15.6604    2.8451   15.0841 H   0  0  0  0  0  0  0  0  0  0  0  0
   15.5916    1.4078   14.0457 H   0  0  0  0  0  0  0  0  0  0  0  0
   17.5869    1.3246   15.5495 H   0  0  0  0  0  0  0  0  0  0  0  0
   16.5256    1.4481   16.9763 H   0  0  0  0  0  0  0  0  0  0  0  0
   15.8426   -0.7725   16.6606 H   0  0  0  0  0  0  0  0  0  0  0  0
   17.2005   -3.2498   15.9965 H   0  0  0  0  0  0  0  0  0  0  0  0
   16.1373   -3.2761   14.5620 H   0  0  0  0  0  0  0  0  0  0  0  0
   15.0337   -4.7441   16.1713 H   0  0  0  0  0  0  0  0  0  0  0  0
   15.3772   -4.1887   17.8192 H   0  0  0  0  0  0  0  0  0  0  0  0
   12.8272   -4.7949   16.9117 H   0  0  0  0  0  0  0  0  0  0  0  0
   13.1132   -3.5341   18.1634 H   0  0  0  0  0  0  0  0  0  0  0  0
   14.0117   -1.3547   15.1272 H   0  0  0  0  0  0  0  0  0  0  0  0
  1  2  1  0
  2  3  1  0
  3  4  1  0
  4  5  2  0
  4  6  1  0
  6  7  1  0
  7  8  1  0
  8  9  1  0
  9 10  1  0
 10 11  2  0
 10 12  1  0
 12  7  1  0
  1 13  1  0
  1 14  1  0
  1 15  1  0
  2 16  1  0
  2 17  1  0
  3 18  1  0
  6 19  1  0
  6 20  1  0
  8 21  1  0
  8 22  1  0
  9 23  1  0
  9 24  1  0
 12 25  1  0
M  END
>  <Energy>  (458) 
40.13247041875897

>  <compound_id>  (458) 
62114

>  <target_id>  (458) 
1

>  <reference_id>  (458) 
98

>  <inspiration_ids>  (458) 
[97, 98]

>  <energy_score>  (458) 
-24.9900820073872

>  <distance_score>  (458) 
1.8587521723749896

>  <path>  (458) 
/opt/xchem-fragalysis-2/maxwin/BulkDock/SCRATCH/511021/C62114-P98/C62114-P98.minimised.mol

>  <scratch_subdir>  (458) 
/opt/xchem-fragalysis-2/maxwin/BulkDock/SCRATCH/511021/C62114-P98

>  <fragmenstein_runtime>  (458) 
1.2743644714355469

>  <fragmenstein_outcome>  (458) 
too moved

>  <fragmenstein_mode>  (458) 
expansion

>  <fragmenstein_error>  (458) 


$$$$
C62117-P97
     RDKit          3D

 31 32  0  0  0  0  0  0  0  0999 V2000
   14.4661    0.2992   12.7932 O   0  0  0  0  0  0  0  0  0  0  0  0
   14.3808   -0.7238   13.3455 C   0  0  0  0  0  0  0  0  0  0  0  0
   13.0360   -1.3381   13.7106 C   0  0  0  0  0  0  0  0  0  0  0  0
   12.7109   -1.4478   15.1984 C   0  0  0  0  0  0  0  0  0  0  0  0
   13.5261   -0.6119   16.1774 C   0  0  0  0  0  0  0  0  0  0  0  0
   14.2480   -1.6016   17.0884 C   0  0  0  0  0  0  0  0  0  0  0  0
   13.5217   -2.9024   16.8744 C   0  0  0  0  0  0  0  0  0  0  0  0
   13.5436   -3.8863   17.5925 O   0  0  0  0  0  0  0  0  0  0  0  0
   12.7964   -2.7956   15.7075 N   0  0  0  0  0  0  0  0  0  0  0  0
   15.4798   -1.6812   13.8528 N   0  0  0  0  0  0  0  0  0  0  0  0
   16.9137   -1.5347   13.8710 C   0  0  0  0  0  0  0  0  0  0  0  0
   17.6630   -2.8612   13.8158 C   0  0  0  0  0  0  0  0  0  0  0  0
   17.4148   -3.7183   15.0132 C   0  0  0  0  0  0  0  0  0  0  0  0
   16.4181   -3.5640   15.8597 N   0  0  0  0  0  0  0  0  0  0  0  0
   16.4724   -4.4510   16.9053 N   0  0  0  0  0  0  0  0  0  0  0  0
   17.4668   -5.2987   16.7746 C   0  0  0  0  0  0  0  0  0  0  0  0
   18.4499   -5.0384   15.3939 S   0  0  0  0  0  0  0  0  0  0  0  0
   12.9361   -2.3014   13.1991 H   0  0  0  0  0  0  0  0  0  0  0  0
   12.2829   -0.6760   13.2645 H   0  0  0  0  0  0  0  0  0  0  0  0
   11.6518   -1.1805   15.3148 H   0  0  0  0  0  0  0  0  0  0  0  0
   12.8473    0.0008   16.7768 H   0  0  0  0  0  0  0  0  0  0  0  0
   14.2204    0.0978   15.7205 H   0  0  0  0  0  0  0  0  0  0  0  0
   15.2954   -1.6932   16.8053 H   0  0  0  0  0  0  0  0  0  0  0  0
   14.1998   -1.2898   18.1333 H   0  0  0  0  0  0  0  0  0  0  0  0
   12.1404   -3.5370   15.4857 H   0  0  0  0  0  0  0  0  0  0  0  0
   15.0509   -2.4500   14.3665 H   0  0  0  0  0  0  0  0  0  0  0  0
   17.1898   -0.9038   13.0196 H   0  0  0  0  0  0  0  0  0  0  0  0
   17.1642   -0.9791   14.7817 H   0  0  0  0  0  0  0  0  0  0  0  0
   17.3888   -3.3976   12.9043 H   0  0  0  0  0  0  0  0  0  0  0  0
   18.7358   -2.6419   13.7461 H   0  0  0  0  0  0  0  0  0  0  0  0
   17.6518   -6.0914   17.4859 H   0  0  0  0  0  0  0  0  0  0  0  0
  1  2  2  0
  2  3  1  0
  3  4  1  0
  4  5  1  0
  5  6  1  0
  6  7  1  0
  7  8  2  0
  7  9  1  0
  2 10  1  0
 10 11  1  0
 11 12  1  0
 12 13  1  0
 13 14  2  0
 14 15  1  0
 15 16  2  0
 16 17  1  0
  9  4  1  0
 17 13  1  0
  3 18  1  0
  3 19  1  0
  4 20  1  0
  5 21  1  0
  5 22  1  0
  6 23  1  0
  6 24  1  0
  9 25  1  0
 10 26  1  0
 11 27  1  0
 11 28  1  0
 12 29  1  0
 12 30  1  0
 16 31  1  0
M  END
>  <Energy>  (459) 
-10.044353719058609

>  <compound_id>  (459) 
62117

>  <target_id>  (459) 
1

>  <reference_id>  (459) 
97

>  <inspiration_ids>  (459) 
[97, 98]

>  <energy_score>  (459) 
-36.532549702832576

>  <distance_score>  (459) 
1.9763375314569267

>  <path>  (459) 
/opt/xchem-fragalysis-2/maxwin/BulkDock/SCRATCH/511021/C62117-P97/C62117-P97.minimised.mol

>  <scratch_subdir>  (459) 
/opt/xchem-fragalysis-2/maxwin/BulkDock/SCRATCH/511021/C62117-P97

>  <fragmenstein_runtime>  (459) 
2.7660653591156006

>  <fragmenstein_outcome>  (459) 
too moved

>  <fragmenstein_mode>  (459) 
expansion

>  <fragmenstein_error>  (459) 


$$$$
C62117-P98
     RDKit          3D

 31 32  0  0  0  0  0  0  0  0999 V2000
   16.6956   -0.3629   16.4955 O   0  0  0  0  0  0  0  0  0  0  0  0
   16.2614   -0.5167   15.4235 C   0  0  0  0  0  0  0  0  0  0  0  0
   14.7828   -0.3245   15.1102 C   0  0  0  0  0  0  0  0  0  0  0  0
   14.1091   -1.6507   14.7450 C   0  0  0  0  0  0  0  0  0  0  0  0
   12.6006   -1.5316   14.6207 C   0  0  0  0  0  0  0  0  0  0  0  0
   12.0815   -1.9448   15.9933 C   0  0  0  0  0  0  0  0  0  0  0  0
   13.1349   -2.8820   16.5101 C   0  0  0  0  0  0  0  0  0  0  0  0
   13.0545   -3.6569   17.4436 O   0  0  0  0  0  0  0  0  0  0  0  0
   14.2496   -2.6654   15.7528 N   0  0  0  0  0  0  0  0  0  0  0  0
   16.9440   -1.0216   14.1263 N   0  0  0  0  0  0  0  0  0  0  0  0
   18.2721   -1.5292   13.9066 C   0  0  0  0  0  0  0  0  0  0  0  0
   18.2875   -3.0588   13.9859 C   0  0  0  0  0  0  0  0  0  0  0  0
   17.8337   -3.5773   15.3107 C   0  0  0  0  0  0  0  0  0  0  0  0
   16.6118   -4.0045   15.5581 N   0  0  0  0  0  0  0  0  0  0  0  0
   16.4353   -4.3603   16.8732 N   0  0  0  0  0  0  0  0  0  0  0  0
   17.5422   -4.2239   17.5674 C   0  0  0  0  0  0  0  0  0  0  0  0
   18.8844   -3.6472   16.6688 S   0  0  0  0  0  0  0  0  0  0  0  0
   14.6835    0.4015   14.2952 H   0  0  0  0  0  0  0  0  0  0  0  0
   14.3125    0.1203   15.9961 H   0  0  0  0  0  0  0  0  0  0  0  0
   14.5173   -2.0517   13.8127 H   0  0  0  0  0  0  0  0  0  0  0  0
   12.2548   -0.5391   14.3163 H   0  0  0  0  0  0  0  0  0  0  0  0
   12.2358   -2.2488   13.8731 H   0  0  0  0  0  0  0  0  0  0  0  0
   12.0188   -1.0750   16.6492 H   0  0  0  0  0  0  0  0  0  0  0  0
   11.1160   -2.4452   15.9063 H   0  0  0  0  0  0  0  0  0  0  0  0
   15.0945   -3.2159   15.9414 H   0  0  0  0  0  0  0  0  0  0  0  0
   16.2524   -1.1114   13.3931 H   0  0  0  0  0  0  0  0  0  0  0  0
   18.5961   -1.1961   12.9162 H   0  0  0  0  0  0  0  0  0  0  0  0
   18.9310   -1.0906   14.6630 H   0  0  0  0  0  0  0  0  0  0  0  0
   17.6338   -3.4630   13.2053 H   0  0  0  0  0  0  0  0  0  0  0  0
   19.2981   -3.4232   13.7667 H   0  0  0  0  0  0  0  0  0  0  0  0
   17.5987   -4.4538   18.6221 H   0  0  0  0  0  0  0  0  0  0  0  0
  1  2  2  0
  2  3  1  0
  3  4  1  0
  4  5  1  0
  5  6  1  0
  6  7  1  0
  7  8  2  0
  7  9  1  0
  2 10  1  0
 10 11  1  0
 11 12  1  0
 12 13  1  0
 13 14  2  0
 14 15  1  0
 15 16  2  0
 16 17  1  0
  9  4  1  0
 17 13  1  0
  3 18  1  0
  3 19  1  0
  4 20  1  0
  5 21  1  0
  5 22  1  0
  6 23  1  0
  6 24  1  0
  9 25  1  0
 10 26  1  0
 11 27  1  0
 11 28  1  0
 12 29  1  0
 12 30  1  0
 16 31  1  0
M  END
>  <Energy>  (460) 
-15.15712875444018

>  <compound_id>  (460) 
62117

>  <target_id>  (460) 
1

>  <reference_id>  (460) 
98

>  <inspiration_ids>  (460) 
[97, 98]

>  <energy_score>  (460) 
-41.64532473821364

>  <distance_score>  (460) 
1.9252423758397945

>  <path>  (460) 
/opt/xchem-fragalysis-2/maxwin/BulkDock/SCRATCH/511021/C62117-P98/C62117-P98.minimised.mol

>  <scratch_subdir>  (460) 
/opt/xchem-fragalysis-2/maxwin/BulkDock/SCRATCH/511021/C62117-P98

>  <fragmenstein_runtime>  (460) 
2.5345122814178467

>  <fragmenstein_outcome>  (460) 
too moved

>  <fragmenstein_mode>  (460) 
expansion

>  <fragmenstein_error>  (460) 


$$$$
C5417-P97
     RDKit          3D

 42 43  0  0  0  0  0  0  0  0999 V2000
   13.4911   -3.9513   17.0588 C   0  0  0  0  0  0  0  0  0  0  0  0
   12.7271   -2.8128   16.4005 C   0  0  0  0  0  0  0  0  0  0  0  0
   11.5911   -3.3001   15.5224 C   0  0  0  0  0  0  0  0  0  0  0  0
   13.5574   -1.8087   15.6710 C   0  0  0  0  0  0  0  0  0  0  0  0
   13.6026   -1.6509   14.3617 N   0  0  0  0  0  0  0  0  0  0  0  0
   14.3406   -0.5474   13.9910 N   0  0  0  0  0  0  0  0  0  0  0  0
   14.8551    0.0701   15.0339 C   0  0  0  0  0  0  0  0  0  0  0  0
   15.6997    1.2939   14.9779 C   0  0  0  0  0  0  0  0  0  0  0  0
   16.9110    1.1576   14.0557 C   0  0  0  0  0  0  0  0  0  0  0  0
   18.0070    0.3334   14.5255 N   0  0  0  0  0  0  0  0  0  0  0  0
   18.2997   -0.2495   15.9408 C   0  0  0  0  0  0  0  0  0  0  0  0
   17.7425   -0.0887   16.9558 O   0  0  0  0  0  0  0  0  0  0  0  0
   19.5718   -1.1147   15.8231 C   0  0  0  0  0  0  0  0  0  0  0  0
   19.3481   -2.5541   15.6347 N   0  0  0  0  0  0  0  0  0  0  0  0
   18.7296   -2.9643   14.3744 C   0  0  0  0  0  0  0  0  0  0  0  0
   17.2036   -2.8898   14.3796 C   0  0  0  0  0  0  0  0  0  0  0  0
   16.6152   -3.4473   15.5716 N   0  0  0  0  0  0  0  0  0  0  0  0
   17.2402   -3.4165   16.7873 C   0  0  0  0  0  0  0  0  0  0  0  0
   16.6075   -3.6419   17.8172 O   0  0  0  0  0  0  0  0  0  0  0  0
   18.7577   -3.2502   16.8001 C   0  0  0  0  0  0  0  0  0  0  0  0
   14.4141   -0.6116   16.5415 S   0  0  0  0  0  0  0  0  0  0  0  0
   12.8064   -4.6063   17.6036 H   0  0  0  0  0  0  0  0  0  0  0  0
   14.0234   -4.5688   16.3349 H   0  0  0  0  0  0  0  0  0  0  0  0
   14.2032   -3.5656   17.7906 H   0  0  0  0  0  0  0  0  0  0  0  0
   12.2563   -2.2664   17.2067 H   0  0  0  0  0  0  0  0  0  0  0  0
   11.0934   -4.1475   15.9841 H   0  0  0  0  0  0  0  0  0  0  0  0
   10.8497   -2.5050   15.3791 H   0  0  0  0  0  0  0  0  0  0  0  0
   11.9189   -3.5853   14.5212 H   0  0  0  0  0  0  0  0  0  0  0  0
   15.0680    2.1035   14.5895 H   0  0  0  0  0  0  0  0  0  0  0  0
   16.0216    1.6142   15.9752 H   0  0  0  0  0  0  0  0  0  0  0  0
   16.6205    0.7661   13.0744 H   0  0  0  0  0  0  0  0  0  0  0  0
   17.3434    2.1505   13.8892 H   0  0  0  0  0  0  0  0  0  0  0  0
   18.7398    0.0513   13.8844 H   0  0  0  0  0  0  0  0  0  0  0  0
   20.2141   -0.7372   15.0188 H   0  0  0  0  0  0  0  0  0  0  0  0
   20.1589   -0.9485   16.7359 H   0  0  0  0  0  0  0  0  0  0  0  0
   19.1362   -2.3949   13.5305 H   0  0  0  0  0  0  0  0  0  0  0  0
   19.0202   -4.0073   14.1908 H   0  0  0  0  0  0  0  0  0  0  0  0
   16.7937   -3.4154   13.5191 H   0  0  0  0  0  0  0  0  0  0  0  0
   16.8531   -1.8637   14.3033 H   0  0  0  0  0  0  0  0  0  0  0  0
   15.6127   -3.5222   15.6027 H   0  0  0  0  0  0  0  0  0  0  0  0
   19.1782   -4.2628   16.8353 H   0  0  0  0  0  0  0  0  0  0  0  0
   19.0475   -2.7549   17.7340 H   0  0  0  0  0  0  0  0  0  0  0  0
  1  2  1  0
  2  3  1  0
  2  4  1  0
  4  5  2  0
  5  6  1  0
  6  7  2  0
  7  8  1  0
  8  9  1  0
  9 10  1  0
 10 11  1  0
 11 12  2  0
 11 13  1  0
 13 14  1  0
 14 15  1  0
 15 16  1  0
 16 17  1  0
 17 18  1  0
 18 19  2  0
 18 20  1  0
  7 21  1  0
 21  4  1  0
 20 14  1  0
  1 22  1  0
  1 23  1  0
  1 24  1  0
  2 25  1  0
  3 26  1  0
  3 27  1  0
  3 28  1  0
  8 29  1  0
  8 30  1  0
  9 31  1  0
  9 32  1  0
 10 33  1  0
 13 34  1  0
 13 35  1  0
 15 36  1  0
 15 37  1  0
 16 38  1  0
 16 39  1  0
 17 40  1  0
 20 41  1  0
 20 42  1  0
M  END
>  <Energy>  (461) 
111.46103691998326

>  <compound_id>  (461) 
5417

>  <target_id>  (461) 
1

>  <reference_id>  (461) 
97

>  <inspiration_ids>  (461) 
[97, 98]

>  <energy_score>  (461) 
-41.53461059853777

>  <distance_score>  (461) 
2.436029646091081

>  <path>  (461) 
/opt/xchem-fragalysis-2/maxwin/BulkDock/SCRATCH/511021/C5417-P97/C5417-P97.minimised.mol

>  <scratch_subdir>  (461) 
/opt/xchem-fragalysis-2/maxwin/BulkDock/SCRATCH/511021/C5417-P97

>  <fragmenstein_runtime>  (461) 
4.223926067352295

>  <fragmenstein_outcome>  (461) 
too moved

>  <fragmenstein_mode>  (461) 
expansion

>  <fragmenstein_error>  (461) 


$$$$
C5417-P98
     RDKit          3D

 42 43  0  0  0  0  0  0  0  0999 V2000
   13.7830   -3.9418   17.0270 C   0  0  0  0  0  0  0  0  0  0  0  0
   12.8527   -2.8583   16.5093 C   0  0  0  0  0  0  0  0  0  0  0  0
   11.6867   -3.4159   15.7214 C   0  0  0  0  0  0  0  0  0  0  0  0
   13.5301   -1.7830   15.7268 C   0  0  0  0  0  0  0  0  0  0  0  0
   13.5113   -1.6506   14.4154 N   0  0  0  0  0  0  0  0  0  0  0  0
   14.2075   -0.5410   13.9908 N   0  0  0  0  0  0  0  0  0  0  0  0
   14.7424    0.1242   14.9943 C   0  0  0  0  0  0  0  0  0  0  0  0
   15.6585    1.2935   14.8099 C   0  0  0  0  0  0  0  0  0  0  0  0
   16.5743    1.6389   15.9877 C   0  0  0  0  0  0  0  0  0  0  0  0
   17.3765    0.5230   16.4214 N   0  0  0  0  0  0  0  0  0  0  0  0
   18.9145    0.3682   16.5204 C   0  0  0  0  0  0  0  0  0  0  0  0
   19.7656    1.1454   16.3395 O   0  0  0  0  0  0  0  0  0  0  0  0
   19.1564   -1.0803   17.0268 C   0  0  0  0  0  0  0  0  0  0  0  0
   18.0964   -1.9991   16.5316 N   0  0  0  0  0  0  0  0  0  0  0  0
   18.3081   -2.2998   15.0995 C   0  0  0  0  0  0  0  0  0  0  0  0
   17.1388   -3.1329   14.5740 C   0  0  0  0  0  0  0  0  0  0  0  0
   16.8346   -4.2672   15.4174 N   0  0  0  0  0  0  0  0  0  0  0  0
   17.1318   -4.3154   16.7509 C   0  0  0  0  0  0  0  0  0  0  0  0
   16.6918   -5.2303   17.4463 O   0  0  0  0  0  0  0  0  0  0  0  0
   18.1097   -3.2717   17.2984 C   0  0  0  0  0  0  0  0  0  0  0  0
   14.2989   -0.4890   16.5344 S   0  0  0  0  0  0  0  0  0  0  0  0
   14.5892   -3.5081   17.6259 H   0  0  0  0  0  0  0  0  0  0  0  0
   13.2421   -4.6444   17.6689 H   0  0  0  0  0  0  0  0  0  0  0  0
   14.2224   -4.5125   16.2091 H   0  0  0  0  0  0  0  0  0  0  0  0
   12.4277   -2.3951   17.3898 H   0  0  0  0  0  0  0  0  0  0  0  0
   10.8870   -2.6715   15.6416 H   0  0  0  0  0  0  0  0  0  0  0  0
   11.9555   -3.6660   14.6943 H   0  0  0  0  0  0  0  0  0  0  0  0
   11.2954   -4.3010   16.2156 H   0  0  0  0  0  0  0  0  0  0  0  0
   15.0528    2.1734   14.5623 H   0  0  0  0  0  0  0  0  0  0  0  0
   16.2869    1.0872   13.9335 H   0  0  0  0  0  0  0  0  0  0  0  0
   15.9934    1.9754   16.8529 H   0  0  0  0  0  0  0  0  0  0  0  0
   17.2501    2.4532   15.7063 H   0  0  0  0  0  0  0  0  0  0  0  0
   16.9262   -0.3409   16.7280 H   0  0  0  0  0  0  0  0  0  0  0  0
   19.1294   -1.0247   18.1218 H   0  0  0  0  0  0  0  0  0  0  0  0
   20.1541   -1.4103   16.7156 H   0  0  0  0  0  0  0  0  0  0  0  0
   18.3686   -1.3824   14.5032 H   0  0  0  0  0  0  0  0  0  0  0  0
   19.2497   -2.8464   14.9566 H   0  0  0  0  0  0  0  0  0  0  0  0
   17.3661   -3.5058   13.5722 H   0  0  0  0  0  0  0  0  0  0  0  0
   16.2313   -2.5284   14.5115 H   0  0  0  0  0  0  0  0  0  0  0  0
   16.1856   -4.9650   15.0759 H   0  0  0  0  0  0  0  0  0  0  0  0
   19.1090   -3.7237   17.2996 H   0  0  0  0  0  0  0  0  0  0  0  0
   17.8138   -3.0623   18.3327 H   0  0  0  0  0  0  0  0  0  0  0  0
  1  2  1  0
  2  3  1  0
  2  4  1  0
  4  5  2  0
  5  6  1  0
  6  7  2  0
  7  8  1  0
  8  9  1  0
  9 10  1  0
 10 11  1  0
 11 12  2  0
 11 13  1  0
 13 14  1  0
 14 15  1  0
 15 16  1  0
 16 17  1  0
 17 18  1  0
 18 19  2  0
 18 20  1  0
  7 21  1  0
 21  4  1  0
 20 14  1  0
  1 22  1  0
  1 23  1  0
  1 24  1  0
  2 25  1  0
  3 26  1  0
  3 27  1  0
  3 28  1  0
  8 29  1  0
  8 30  1  0
  9 31  1  0
  9 32  1  0
 10 33  1  0
 13 34  1  0
 13 35  1  0
 15 36  1  0
 15 37  1  0
 16 38  1  0
 16 39  1  0
 17 40  1  0
 20 41  1  0
 20 42  1  0
M  END
>  <Energy>  (462) 
100.81507394536956

>  <compound_id>  (462) 
5417

>  <target_id>  (462) 
1

>  <reference_id>  (462) 
98

>  <inspiration_ids>  (462) 
[97, 98]

>  <energy_score>  (462) 
-52.18057357315314

>  <distance_score>  (462) 
2.700203789411095

>  <path>  (462) 
/opt/xchem-fragalysis-2/maxwin/BulkDock/SCRATCH/511021/C5417-P98/C5417-P98.minimised.mol

>  <scratch_subdir>  (462) 
/opt/xchem-fragalysis-2/maxwin/BulkDock/SCRATCH/511021/C5417-P98

>  <fragmenstein_runtime>  (462) 
4.818705081939697

>  <fragmenstein_outcome>  (462) 
too moved

>  <fragmenstein_mode>  (462) 
expansion

>  <fragmenstein_error>  (462) 


$$$$
C35808-P97
     RDKit          3D

 46 47  0  0  0  0  0  0  0  0999 V2000
   16.3712   -4.6703   18.9449 C   0  0  0  0  0  0  0  0  0  0  0  0
   17.4690   -4.8622   17.8980 C   0  0  0  0  0  0  0  0  0  0  0  0
   17.7153   -6.3539   17.6637 C   0  0  0  0  0  0  0  0  0  0  0  0
   17.1469   -4.1632   16.6169 C   0  0  0  0  0  0  0  0  0  0  0  0
   15.9411   -3.8686   16.1863 N   0  0  0  0  0  0  0  0  0  0  0  0
   15.9594   -3.2332   14.9718 N   0  0  0  0  0  0  0  0  0  0  0  0
   17.1779   -3.1415   14.4833 C   0  0  0  0  0  0  0  0  0  0  0  0
   17.5013   -2.5931   13.1398 C   0  0  0  0  0  0  0  0  0  0  0  0
   17.7116   -1.0813   13.1656 C   0  0  0  0  0  0  0  0  0  0  0  0
   16.5392   -0.4140   13.6629 N   0  0  0  0  0  0  0  0  0  0  0  0
   16.2515    0.2123   15.0480 C   0  0  0  0  0  0  0  0  0  0  0  0
   16.9469    0.3520   15.9728 O   0  0  0  0  0  0  0  0  0  0  0  0
   14.7770    0.5839   15.0511 C   0  0  0  0  0  0  0  0  0  0  0  0
   13.8405   -0.6472   15.1216 C   0  0  0  0  0  0  0  0  0  0  0  0
   12.4463   -0.1765   14.7001 C   0  0  0  0  0  0  0  0  0  0  0  0
   11.2961   -1.0854   15.0938 C   0  0  0  0  0  0  0  0  0  0  0  0
   11.5935   -2.5540   14.8711 C   0  0  0  0  0  0  0  0  0  0  0  0
   12.2617   -3.1474   16.0026 N   0  0  0  0  0  0  0  0  0  0  0  0
   13.2856   -2.6649   16.7507 C   0  0  0  0  0  0  0  0  0  0  0  0
   13.6493   -3.3503   17.7118 O   0  0  0  0  0  0  0  0  0  0  0  0
   13.8414   -1.2537   16.5276 C   0  0  0  0  0  0  0  0  0  0  0  0
   18.4044   -3.7163   15.5297 S   0  0  0  0  0  0  0  0  0  0  0  0
   16.1737   -3.6066   19.1186 H   0  0  0  0  0  0  0  0  0  0  0  0
   16.6671   -5.1152   19.9012 H   0  0  0  0  0  0  0  0  0  0  0  0
   15.4330   -5.1433   18.6356 H   0  0  0  0  0  0  0  0  0  0  0  0
   18.3876   -4.4283   18.3153 H   0  0  0  0  0  0  0  0  0  0  0  0
   17.9377   -6.8653   18.6064 H   0  0  0  0  0  0  0  0  0  0  0  0
   18.5653   -6.5159   16.9918 H   0  0  0  0  0  0  0  0  0  0  0  0
   16.8442   -6.8382   17.2122 H   0  0  0  0  0  0  0  0  0  0  0  0
   16.6726   -2.8212   12.4582 H   0  0  0  0  0  0  0  0  0  0  0  0
   18.3912   -3.0794   12.7234 H   0  0  0  0  0  0  0  0  0  0  0  0
   17.9069   -0.7049   12.1570 H   0  0  0  0  0  0  0  0  0  0  0  0
   18.5539   -0.8140   13.8122 H   0  0  0  0  0  0  0  0  0  0  0  0
   15.7297   -0.2985   13.0643 H   0  0  0  0  0  0  0  0  0  0  0  0
   14.5796    1.1752   14.1475 H   0  0  0  0  0  0  0  0  0  0  0  0
   14.5961    1.2560   15.8996 H   0  0  0  0  0  0  0  0  0  0  0  0
   14.1724   -1.4101   14.4092 H   0  0  0  0  0  0  0  0  0  0  0  0
   12.2379    0.8182   15.1168 H   0  0  0  0  0  0  0  0  0  0  0  0
   12.4409   -0.0489   13.6092 H   0  0  0  0  0  0  0  0  0  0  0  0
   10.4187   -0.7747   14.5232 H   0  0  0  0  0  0  0  0  0  0  0  0
   11.0328   -0.9011   16.1375 H   0  0  0  0  0  0  0  0  0  0  0  0
   10.6546   -3.1039   14.7656 H   0  0  0  0  0  0  0  0  0  0  0  0
   12.1882   -2.7304   13.9699 H   0  0  0  0  0  0  0  0  0  0  0  0
   12.0271   -4.1030   16.2526 H   0  0  0  0  0  0  0  0  0  0  0  0
   14.8783   -1.3058   16.8834 H   0  0  0  0  0  0  0  0  0  0  0  0
   13.3176   -0.5848   17.2181 H   0  0  0  0  0  0  0  0  0  0  0  0
  1  2  1  0
  2  3  1  0
  2  4  1  0
  4  5  2  0
  5  6  1  0
  6  7  2  0
  7  8  1  0
  8  9  1  0
  9 10  1  0
 10 11  1  0
 11 12  2  0
 11 13  1  0
 13 14  1  0
 14 15  1  0
 15 16  1  0
 16 17  1  0
 17 18  1  0
 18 19  1  0
 19 20  2  0
 19 21  1  0
  7 22  1  0
 22  4  1  0
 21 14  1  0
  1 23  1  0
  1 24  1  0
  1 25  1  0
  2 26  1  0
  3 27  1  0
  3 28  1  0
  3 29  1  0
  8 30  1  0
  8 31  1  0
  9 32  1  0
  9 33  1  0
 10 34  1  0
 13 35  1  0
 13 36  1  0
 14 37  1  0
 15 38  1  0
 15 39  1  0
 16 40  1  0
 16 41  1  0
 17 42  1  0
 17 43  1  0
 18 44  1  0
 21 45  1  0
 21 46  1  0
M  END
>  <Energy>  (463) 
-3.3198112487735587

>  <compound_id>  (463) 
35808

>  <target_id>  (463) 
1

>  <reference_id>  (463) 
97

>  <inspiration_ids>  (463) 
[97, 98]

>  <energy_score>  (463) 
-92.0196845445154

>  <distance_score>  (463) 
1.772168265072152

>  <path>  (463) 
/opt/xchem-fragalysis-2/maxwin/BulkDock/SCRATCH/511021/C35808-P97/C35808-P97.minimised.mol

>  <scratch_subdir>  (463) 
/opt/xchem-fragalysis-2/maxwin/BulkDock/SCRATCH/511021/C35808-P97

>  <fragmenstein_runtime>  (463) 
1.9008960723876953

>  <fragmenstein_outcome>  (463) 
too moved

>  <fragmenstein_mode>  (463) 
expansion

>  <fragmenstein_error>  (463) 


$$$$
C35808-P98
     RDKit          3D

 46 47  0  0  0  0  0  0  0  0999 V2000
   16.2745   -4.7711   19.0566 C   0  0  0  0  0  0  0  0  0  0  0  0
   17.4400   -4.8515   18.0691 C   0  0  0  0  0  0  0  0  0  0  0  0
   17.8207   -6.3117   17.8199 C   0  0  0  0  0  0  0  0  0  0  0  0
   17.1254   -4.1553   16.7868 C   0  0  0  0  0  0  0  0  0  0  0  0
   15.9268   -4.0321   16.2637 N   0  0  0  0  0  0  0  0  0  0  0  0
   15.9497   -3.3536   15.0753 N   0  0  0  0  0  0  0  0  0  0  0  0
   17.1707   -3.0492   14.6961 C   0  0  0  0  0  0  0  0  0  0  0  0
   17.5038   -2.4003   13.4012 C   0  0  0  0  0  0  0  0  0  0  0  0
   17.6904   -0.8871   13.5273 C   0  0  0  0  0  0  0  0  0  0  0  0
   16.4818   -0.2282   13.9533 N   0  0  0  0  0  0  0  0  0  0  0  0
   16.0822    0.3422   15.3344 C   0  0  0  0  0  0  0  0  0  0  0  0
   16.6981    0.4361   16.3200 O   0  0  0  0  0  0  0  0  0  0  0  0
   14.6048    0.7394   15.2560 C   0  0  0  0  0  0  0  0  0  0  0  0
   13.5879   -0.4283   15.3458 C   0  0  0  0  0  0  0  0  0  0  0  0
   13.5286   -1.2424   14.0587 C   0  0  0  0  0  0  0  0  0  0  0  0
   12.1955   -1.9367   13.8283 C   0  0  0  0  0  0  0  0  0  0  0  0
   11.4282   -2.3627   15.0630 C   0  0  0  0  0  0  0  0  0  0  0  0
   12.2112   -3.1268   15.9883 N   0  0  0  0  0  0  0  0  0  0  0  0
   13.2060   -2.6749   16.7907 C   0  0  0  0  0  0  0  0  0  0  0  0
   13.5429   -3.3913   17.7384 O   0  0  0  0  0  0  0  0  0  0  0  0
   13.8439   -1.2972   16.5855 C   0  0  0  0  0  0  0  0  0  0  0  0
   18.3840   -3.4860   15.8224 S   0  0  0  0  0  0  0  0  0  0  0  0
   15.9946   -3.7294   19.2493 H   0  0  0  0  0  0  0  0  0  0  0  0
   16.5472   -5.2263   20.0149 H   0  0  0  0  0  0  0  0  0  0  0  0
   15.3885   -5.2939   18.6798 H   0  0  0  0  0  0  0  0  0  0  0  0
   18.2966   -4.3549   18.5441 H   0  0  0  0  0  0  0  0  0  0  0  0
   18.0527   -6.8198   18.7620 H   0  0  0  0  0  0  0  0  0  0  0  0
   18.7041   -6.3872   17.1763 H   0  0  0  0  0  0  0  0  0  0  0  0
   17.0101   -6.8600   17.3304 H   0  0  0  0  0  0  0  0  0  0  0  0
   16.6985   -2.6056   12.6846 H   0  0  0  0  0  0  0  0  0  0  0  0
   18.4146   -2.8433   12.9807 H   0  0  0  0  0  0  0  0  0  0  0  0
   17.9653   -0.4621   12.5570 H   0  0  0  0  0  0  0  0  0  0  0  0
   18.4781   -0.6465   14.2488 H   0  0  0  0  0  0  0  0  0  0  0  0
   15.7279   -0.0797   13.2954 H   0  0  0  0  0  0  0  0  0  0  0  0
   14.4380    1.3305   14.3472 H   0  0  0  0  0  0  0  0  0  0  0  0
   14.4225    1.4292   16.0913 H   0  0  0  0  0  0  0  0  0  0  0  0
   12.6130    0.0612   15.4741 H   0  0  0  0  0  0  0  0  0  0  0  0
   13.6945   -0.5943   13.1892 H   0  0  0  0  0  0  0  0  0  0  0  0
   14.3247   -1.9849   14.0320 H   0  0  0  0  0  0  0  0  0  0  0  0
   12.3540   -2.7989   13.1714 H   0  0  0  0  0  0  0  0  0  0  0  0
   11.5717   -1.2346   13.2692 H   0  0  0  0  0  0  0  0  0  0  0  0
   11.0213   -1.4953   15.5929 H   0  0  0  0  0  0  0  0  0  0  0  0
   10.5781   -2.9853   14.7716 H   0  0  0  0  0  0  0  0  0  0  0  0
   11.8901   -4.0528   16.2561 H   0  0  0  0  0  0  0  0  0  0  0  0
   14.9179   -1.4923   16.6706 H   0  0  0  0  0  0  0  0  0  0  0  0
   13.5827   -0.7009   17.4680 H   0  0  0  0  0  0  0  0  0  0  0  0
  1  2  1  0
  2  3  1  0
  2  4  1  0
  4  5  2  0
  5  6  1  0
  6  7  2  0
  7  8  1  0
  8  9  1  0
  9 10  1  0
 10 11  1  0
 11 12  2  0
 11 13  1  0
 13 14  1  0
 14 15  1  0
 15 16  1  0
 16 17  1  0
 17 18  1  0
 18 19  1  0
 19 20  2  0
 19 21  1  0
  7 22  1  0
 22  4  1  0
 21 14  1  0
  1 23  1  0
  1 24  1  0
  1 25  1  0
  2 26  1  0
  3 27  1  0
  3 28  1  0
  3 29  1  0
  8 30  1  0
  8 31  1  0
  9 32  1  0
  9 33  1  0
 10 34  1  0
 13 35  1  0
 13 36  1  0
 14 37  1  0
 15 38  1  0
 15 39  1  0
 16 40  1  0
 16 41  1  0
 17 42  1  0
 17 43  1  0
 18 44  1  0
 21 45  1  0
 21 46  1  0
M  END
>  <Energy>  (464) 
0.71379179240353796

>  <compound_id>  (464) 
35808

>  <target_id>  (464) 
1

>  <reference_id>  (464) 
98

>  <inspiration_ids>  (464) 
[97, 98]

>  <energy_score>  (464) 
-87.98608150333774

>  <distance_score>  (464) 
1.81120941961981

>  <path>  (464) 
/opt/xchem-fragalysis-2/maxwin/BulkDock/SCRATCH/511021/C35808-P98/C35808-P98.minimised.mol

>  <scratch_subdir>  (464) 
/opt/xchem-fragalysis-2/maxwin/BulkDock/SCRATCH/511021/C35808-P98

>  <fragmenstein_runtime>  (464) 
2.363696336746216

>  <fragmenstein_outcome>  (464) 
too moved

>  <fragmenstein_mode>  (464) 
expansion

>  <fragmenstein_error>  (464) 


$$$$
C62118-P97
     RDKit          3D

 41 42  0  0  0  0  0  0  0  0999 V2000
   14.6648    1.8771   18.0716 O   0  0  0  0  0  0  0  0  0  0  0  0
   15.1293    1.1271   17.3077 C   0  0  0  0  0  0  0  0  0  0  0  0
   14.5624    0.9467   15.8955 C   0  0  0  0  0  0  0  0  0  0  0  0
   14.0751   -0.4967   15.6338 C   0  0  0  0  0  0  0  0  0  0  0  0
   13.4265   -1.1326   16.8628 C   0  0  0  0  0  0  0  0  0  0  0  0
   13.4732   -2.6495   16.8334 C   0  0  0  0  0  0  0  0  0  0  0  0
   12.3509   -3.3044   16.0742 C   0  0  0  0  0  0  0  0  0  0  0  0
   11.6462   -2.4270   15.0688 C   0  0  0  0  0  0  0  0  0  0  0  0
   12.6011   -1.7484   14.1228 C   0  0  0  0  0  0  0  0  0  0  0  0
   12.9122   -2.2341   13.0446 O   0  0  0  0  0  0  0  0  0  0  0  0
   13.1889   -0.5577   14.4733 N   0  0  0  0  0  0  0  0  0  0  0  0
   16.2749    0.0958   17.4817 N   0  0  0  0  0  0  0  0  0  0  0  0
   17.0192   -0.2901   18.6590 C   0  0  0  0  0  0  0  0  0  0  0  0
   16.4100   -1.5298   19.3435 C   0  0  0  0  0  0  0  0  0  0  0  0
   16.3768   -2.8077   18.5366 C   0  0  0  0  0  0  0  0  0  0  0  0
   15.7080   -3.8918   18.8887 N   0  0  0  0  0  0  0  0  0  0  0  0
   15.9199   -4.9488   18.0281 N   0  0  0  0  0  0  0  0  0  0  0  0
   16.7273   -4.6237   17.0406 C   0  0  0  0  0  0  0  0  0  0  0  0
   17.2236   -5.5360   15.9785 C   0  0  0  0  0  0  0  0  0  0  0  0
   16.6716   -6.8388   16.1593 O   0  0  0  0  0  0  0  0  0  0  0  0
   17.2697   -3.0061   17.0809 S   0  0  0  0  0  0  0  0  0  0  0  0
   13.7243    1.6468   15.7860 H   0  0  0  0  0  0  0  0  0  0  0  0
   15.3196    1.2431   15.1609 H   0  0  0  0  0  0  0  0  0  0  0  0
   14.9522   -1.0932   15.3515 H   0  0  0  0  0  0  0  0  0  0  0  0
   13.9341   -0.8468   17.7830 H   0  0  0  0  0  0  0  0  0  0  0  0
   12.4063   -0.7667   16.9548 H   0  0  0  0  0  0  0  0  0  0  0  0
   14.4160   -2.9795   16.3925 H   0  0  0  0  0  0  0  0  0  0  0  0
   13.4569   -3.0445   17.8541 H   0  0  0  0  0  0  0  0  0  0  0  0
   11.6179   -3.7230   16.7606 H   0  0  0  0  0  0  0  0  0  0  0  0
   12.7792   -4.1725   15.5909 H   0  0  0  0  0  0  0  0  0  0  0  0
   11.0198   -1.6698   15.5521 H   0  0  0  0  0  0  0  0  0  0  0  0
   10.9623   -3.0403   14.4730 H   0  0  0  0  0  0  0  0  0  0  0  0
   13.6529   -0.2202   13.6364 H   0  0  0  0  0  0  0  0  0  0  0  0
   16.4805   -0.3363   16.5882 H   0  0  0  0  0  0  0  0  0  0  0  0
   16.9881    0.5529   19.3571 H   0  0  0  0  0  0  0  0  0  0  0  0
   18.0604   -0.4543   18.3652 H   0  0  0  0  0  0  0  0  0  0  0  0
   15.3824   -1.3008   19.6525 H   0  0  0  0  0  0  0  0  0  0  0  0
   16.9775   -1.7312   20.2604 H   0  0  0  0  0  0  0  0  0  0  0  0
   18.3133   -5.6280   16.0212 H   0  0  0  0  0  0  0  0  0  0  0  0
   16.9403   -5.1777   14.9868 H   0  0  0  0  0  0  0  0  0  0  0  0
   16.5684   -6.9797   17.1220 H   0  0  0  0  0  0  0  0  0  0  0  0
  1  2  2  0
  2  3  1  0
  3  4  1  0
  4  5  1  0
  5  6  1  0
  6  7  1  0
  7  8  1  0
  8  9  1  0
  9 10  2  0
  9 11  1  0
  2 12  1  0
 12 13  1  0
 13 14  1  0
 14 15  1  0
 15 16  2  0
 16 17  1  0
 17 18  2  0
 18 19  1  0
 19 20  1  0
 18 21  1  0
 11  4  1  0
 21 15  1  0
  3 22  1  0
  3 23  1  0
  4 24  1  0
  5 25  1  0
  5 26  1  0
  6 27  1  0
  6 28  1  0
  7 29  1  0
  7 30  1  0
  8 31  1  0
  8 32  1  0
 11 33  1  0
 12 34  1  0
 13 35  1  0
 13 36  1  0
 14 37  1  0
 14 38  1  0
 19 39  1  0
 19 40  1  0
 20 41  1  0
M  END
>  <Energy>  (465) 
23.880677912949341

>  <compound_id>  (465) 
62118

>  <target_id>  (465) 
1

>  <reference_id>  (465) 
97

>  <inspiration_ids>  (465) 
[97, 98]

>  <energy_score>  (465) 
-86.08908266833788

>  <distance_score>  (465) 
3.222240901892073

>  <path>  (465) 
/opt/xchem-fragalysis-2/maxwin/BulkDock/SCRATCH/511021/C62118-P97/C62118-P97.minimised.mol

>  <scratch_subdir>  (465) 
/opt/xchem-fragalysis-2/maxwin/BulkDock/SCRATCH/511021/C62118-P97

>  <fragmenstein_runtime>  (465) 
1.9454708099365234

>  <fragmenstein_outcome>  (465) 
too moved

>  <fragmenstein_mode>  (465) 
expansion

>  <fragmenstein_error>  (465) 


$$$$
C62118-P98
     RDKit          3D

 41 42  0  0  0  0  0  0  0  0999 V2000
   14.6210    2.0354   17.8540 O   0  0  0  0  0  0  0  0  0  0  0  0
   15.0602    1.2622   17.1002 C   0  0  0  0  0  0  0  0  0  0  0  0
   14.4094    0.9615   15.7476 C   0  0  0  0  0  0  0  0  0  0  0  0
   13.9523   -0.5136   15.6204 C   0  0  0  0  0  0  0  0  0  0  0  0
   13.2472   -1.0119   16.8841 C   0  0  0  0  0  0  0  0  0  0  0  0
   13.3337   -2.5171   17.1357 C   0  0  0  0  0  0  0  0  0  0  0  0
   13.0771   -3.3722   15.9374 C   0  0  0  0  0  0  0  0  0  0  0  0
   11.9577   -2.8143   15.0865 C   0  0  0  0  0  0  0  0  0  0  0  0
   12.4924   -1.8365   14.0735 C   0  0  0  0  0  0  0  0  0  0  0  0
   12.4037   -2.0581   12.8722 O   0  0  0  0  0  0  0  0  0  0  0  0
   13.0960   -0.6714   14.4484 N   0  0  0  0  0  0  0  0  0  0  0  0
   16.2586    0.2967   17.2403 N   0  0  0  0  0  0  0  0  0  0  0  0
   17.1061    0.0147   18.3711 C   0  0  0  0  0  0  0  0  0  0  0  0
   16.7088   -1.3333   19.0069 C   0  0  0  0  0  0  0  0  0  0  0  0
   16.7422   -2.4608   18.0093 C   0  0  0  0  0  0  0  0  0  0  0  0
   16.5807   -2.3081   16.7121 N   0  0  0  0  0  0  0  0  0  0  0  0
   16.7643   -3.4548   16.0035 N   0  0  0  0  0  0  0  0  0  0  0  0
   17.0205   -4.4742   16.7905 C   0  0  0  0  0  0  0  0  0  0  0  0
   17.4050   -5.8094   16.2709 C   0  0  0  0  0  0  0  0  0  0  0  0
   17.2228   -6.8191   17.2581 O   0  0  0  0  0  0  0  0  0  0  0  0
   16.9769   -4.0897   18.4659 S   0  0  0  0  0  0  0  0  0  0  0  0
   13.5450    1.6296   15.6408 H   0  0  0  0  0  0  0  0  0  0  0  0
   15.1097    1.2225   14.9455 H   0  0  0  0  0  0  0  0  0  0  0  0
   14.8277   -1.1345   15.4161 H   0  0  0  0  0  0  0  0  0  0  0  0
   13.6493   -0.5402   17.7834 H   0  0  0  0  0  0  0  0  0  0  0  0
   12.1975   -0.7095   16.8254 H   0  0  0  0  0  0  0  0  0  0  0  0
   14.2934   -2.7759   17.5688 H   0  0  0  0  0  0  0  0  0  0  0  0
   12.6216   -2.8431   17.8873 H   0  0  0  0  0  0  0  0  0  0  0  0
   12.8346   -4.3860   16.2739 H   0  0  0  0  0  0  0  0  0  0  0  0
   14.0180   -3.4178   15.3913 H   0  0  0  0  0  0  0  0  0  0  0  0
   11.1593   -2.3447   15.6686 H   0  0  0  0  0  0  0  0  0  0  0  0
   11.4793   -3.6208   14.5224 H   0  0  0  0  0  0  0  0  0  0  0  0
   13.4116   -0.1983   13.6085 H   0  0  0  0  0  0  0  0  0  0  0  0
   16.4156   -0.1811   16.3552 H   0  0  0  0  0  0  0  0  0  0  0  0
   16.9972    0.8221   19.1012 H   0  0  0  0  0  0  0  0  0  0  0  0
   18.1394   -0.0112   18.0108 H   0  0  0  0  0  0  0  0  0  0  0  0
   15.6916   -1.2620   19.4116 H   0  0  0  0  0  0  0  0  0  0  0  0
   17.3857   -1.5423   19.8431 H   0  0  0  0  0  0  0  0  0  0  0  0
   18.4540   -5.8133   15.9583 H   0  0  0  0  0  0  0  0  0  0  0  0
   16.7923   -6.0695   15.4036 H   0  0  0  0  0  0  0  0  0  0  0  0
   17.8288   -6.6221   17.9923 H   0  0  0  0  0  0  0  0  0  0  0  0
  1  2  2  0
  2  3  1  0
  3  4  1  0
  4  5  1  0
  5  6  1  0
  6  7  1  0
  7  8  1  0
  8  9  1  0
  9 10  2  0
  9 11  1  0
  2 12  1  0
 12 13  1  0
 13 14  1  0
 14 15  1  0
 15 16  2  0
 16 17  1  0
 17 18  2  0
 18 19  1  0
 19 20  1  0
 18 21  1  0
 11  4  1  0
 21 15  1  0
  3 22  1  0
  3 23  1  0
  4 24  1  0
  5 25  1  0
  5 26  1  0
  6 27  1  0
  6 28  1  0
  7 29  1  0
  7 30  1  0
  8 31  1  0
  8 32  1  0
 11 33  1  0
 12 34  1  0
 13 35  1  0
 13 36  1  0
 14 37  1  0
 14 38  1  0
 19 39  1  0
 19 40  1  0
 20 41  1  0
M  END
>  <Energy>  (466) 
14.787901031062189

>  <compound_id>  (466) 
62118

>  <target_id>  (466) 
1

>  <reference_id>  (466) 
98

>  <inspiration_ids>  (466) 
[97, 98]

>  <energy_score>  (466) 
-95.18185955022443

>  <distance_score>  (466) 
3.2701278813342833

>  <path>  (466) 
/opt/xchem-fragalysis-2/maxwin/BulkDock/SCRATCH/511021/C62118-P98/C62118-P98.minimised.mol

>  <scratch_subdir>  (466) 
/opt/xchem-fragalysis-2/maxwin/BulkDock/SCRATCH/511021/C62118-P98

>  <fragmenstein_runtime>  (466) 
2.785644054412842

>  <fragmenstein_outcome>  (466) 
too moved

>  <fragmenstein_mode>  (466) 
expansion

>  <fragmenstein_error>  (466) 


$$$$
C62119-P97
     RDKit          3D

 39 40  0  0  0  0  0  0  0  0999 V2000
   17.6503   -4.8520   18.3978 N   0  0  0  0  0  0  0  0  0  0  0  0
   17.2289   -4.3488   17.2309 C   0  0  0  0  0  0  0  0  0  0  0  0
   15.9770   -4.3303   16.8509 N   0  0  0  0  0  0  0  0  0  0  0  0
   15.8416   -3.8556   15.5749 N   0  0  0  0  0  0  0  0  0  0  0  0
   16.9845   -3.4700   15.0495 C   0  0  0  0  0  0  0  0  0  0  0  0
   17.1681   -2.9459   13.6492 C   0  0  0  0  0  0  0  0  0  0  0  0
   17.6209   -1.4872   13.5383 C   0  0  0  0  0  0  0  0  0  0  0  0
   16.5551   -0.5560   13.8144 N   0  0  0  0  0  0  0  0  0  0  0  0
   15.2565   -0.2404   13.0151 C   0  0  0  0  0  0  0  0  0  0  0  0
   14.8941   -0.6313   11.9757 O   0  0  0  0  0  0  0  0  0  0  0  0
   14.3907    0.6575   13.9051 C   0  0  0  0  0  0  0  0  0  0  0  0
   13.5399   -0.1239   14.9330 C   0  0  0  0  0  0  0  0  0  0  0  0
   14.3506   -1.2240   15.6297 C   0  0  0  0  0  0  0  0  0  0  0  0
   13.6606   -1.9014   16.7991 C   0  0  0  0  0  0  0  0  0  0  0  0
   12.8080   -3.0975   16.3931 C   0  0  0  0  0  0  0  0  0  0  0  0
   11.9396   -2.8615   15.1730 C   0  0  0  0  0  0  0  0  0  0  0  0
   11.4762   -1.4399   15.0765 C   0  0  0  0  0  0  0  0  0  0  0  0
   10.5006   -1.0173   15.6855 O   0  0  0  0  0  0  0  0  0  0  0  0
   12.2797   -0.5881   14.3451 N   0  0  0  0  0  0  0  0  0  0  0  0
   18.3326   -3.7197   16.0807 S   0  0  0  0  0  0  0  0  0  0  0  0
   18.6015   -5.1981   18.4360 H   0  0  0  0  0  0  0  0  0  0  0  0
   16.9876   -5.4659   18.8612 H   0  0  0  0  0  0  0  0  0  0  0  0
   17.9088   -3.5771   13.1425 H   0  0  0  0  0  0  0  0  0  0  0  0
   16.2228   -3.0546   13.1071 H   0  0  0  0  0  0  0  0  0  0  0  0
   17.9360   -1.2949   12.5072 H   0  0  0  0  0  0  0  0  0  0  0  0
   18.4554   -1.2554   14.2063 H   0  0  0  0  0  0  0  0  0  0  0  0
   16.5895    0.0204   14.6462 H   0  0  0  0  0  0  0  0  0  0  0  0
   13.7532    1.2668   13.2525 H   0  0  0  0  0  0  0  0  0  0  0  0
   15.0431    1.3657   14.4305 H   0  0  0  0  0  0  0  0  0  0  0  0
   13.2326    0.5984   15.7024 H   0  0  0  0  0  0  0  0  0  0  0  0
   14.6218   -1.9743   14.8878 H   0  0  0  0  0  0  0  0  0  0  0  0
   15.2638   -0.7768   16.0365 H   0  0  0  0  0  0  0  0  0  0  0  0
   13.0551   -1.1525   17.3109 H   0  0  0  0  0  0  0  0  0  0  0  0
   14.4057   -2.2403   17.5278 H   0  0  0  0  0  0  0  0  0  0  0  0
   12.1904   -3.3853   17.2423 H   0  0  0  0  0  0  0  0  0  0  0  0
   13.4324   -3.9745   16.2084 H   0  0  0  0  0  0  0  0  0  0  0  0
   11.0660   -3.5208   15.1795 H   0  0  0  0  0  0  0  0  0  0  0  0
   12.4836   -3.0842   14.2518 H   0  0  0  0  0  0  0  0  0  0  0  0
   11.6927    0.2040   14.1068 H   0  0  0  0  0  0  0  0  0  0  0  0
  1  2  1  0
  2  3  2  0
  3  4  1  0
  4  5  2  0
  5  6  1  0
  6  7  1  0
  7  8  1  0
  8  9  1  0
  9 10  2  0
  9 11  1  0
 11 12  1  0
 12 13  1  0
 13 14  1  0
 14 15  1  0
 15 16  1  0
 16 17  1  0
 17 18  2  0
 17 19  1  0
  5 20  1  0
 20  2  1  0
 19 12  1  0
  1 21  1  0
  1 22  1  0
  6 23  1  0
  6 24  1  0
  7 25  1  0
  7 26  1  0
  8 27  1  0
 11 28  1  0
 11 29  1  0
 12 30  1  0
 13 31  1  0
 13 32  1  0
 14 33  1  0
 14 34  1  0
 15 35  1  0
 15 36  1  0
 16 37  1  0
 16 38  1  0
 19 39  1  0
M  END
>  <Energy>  (467) 
-16.239395008522273

>  <compound_id>  (467) 
62119

>  <target_id>  (467) 
1

>  <reference_id>  (467) 
97

>  <inspiration_ids>  (467) 
[97, 98]

>  <energy_score>  (467) 
-78.21595597268868

>  <distance_score>  (467) 
1.9513801288046186

>  <path>  (467) 
/opt/xchem-fragalysis-2/maxwin/BulkDock/SCRATCH/511021/C62119-P97/C62119-P97.minimised.mol

>  <scratch_subdir>  (467) 
/opt/xchem-fragalysis-2/maxwin/BulkDock/SCRATCH/511021/C62119-P97

>  <fragmenstein_runtime>  (467) 
2.067427396774292

>  <fragmenstein_outcome>  (467) 
too moved

>  <fragmenstein_mode>  (467) 
expansion

>  <fragmenstein_error>  (467) 


$$$$
C62119-P98
     RDKit          3D

 39 40  0  0  0  0  0  0  0  0999 V2000
   17.6236   -4.7968   18.4467 N   0  0  0  0  0  0  0  0  0  0  0  0
   17.2078   -4.3321   17.2626 C   0  0  0  0  0  0  0  0  0  0  0  0
   15.9637   -4.3648   16.8582 N   0  0  0  0  0  0  0  0  0  0  0  0
   15.8354   -3.9122   15.5729 N   0  0  0  0  0  0  0  0  0  0  0  0
   16.9746   -3.4934   15.0646 C   0  0  0  0  0  0  0  0  0  0  0  0
   17.1662   -2.9762   13.6631 C   0  0  0  0  0  0  0  0  0  0  0  0
   17.6192   -1.5178   13.5461 C   0  0  0  0  0  0  0  0  0  0  0  0
   16.5551   -0.5851   13.8225 N   0  0  0  0  0  0  0  0  0  0  0  0
   15.2538   -0.2724   13.0272 C   0  0  0  0  0  0  0  0  0  0  0  0
   14.8872   -0.6675   11.9911 O   0  0  0  0  0  0  0  0  0  0  0  0
   14.3914    0.6295   13.9161 C   0  0  0  0  0  0  0  0  0  0  0  0
   13.5417   -0.1478   14.9477 C   0  0  0  0  0  0  0  0  0  0  0  0
   14.3532   -1.2458   15.6478 C   0  0  0  0  0  0  0  0  0  0  0  0
   13.6630   -1.9151   16.8217 C   0  0  0  0  0  0  0  0  0  0  0  0
   12.8078   -3.1116   16.4230 C   0  0  0  0  0  0  0  0  0  0  0  0
   11.9544   -2.8855   15.1913 C   0  0  0  0  0  0  0  0  0  0  0  0
   11.4751   -1.4691   15.0878 C   0  0  0  0  0  0  0  0  0  0  0  0
   10.4816   -1.0606   15.6787 O   0  0  0  0  0  0  0  0  0  0  0  0
   12.2768   -0.6087   14.3650 N   0  0  0  0  0  0  0  0  0  0  0  0
   18.3114   -3.6866   16.1222 S   0  0  0  0  0  0  0  0  0  0  0  0
   18.5864   -5.1036   18.5158 H   0  0  0  0  0  0  0  0  0  0  0  0
   16.9727   -5.4153   18.9199 H   0  0  0  0  0  0  0  0  0  0  0  0
   17.9096   -3.6103   13.1644 H   0  0  0  0  0  0  0  0  0  0  0  0
   16.2238   -3.0869   13.1169 H   0  0  0  0  0  0  0  0  0  0  0  0
   17.9311   -1.3294   12.5133 H   0  0  0  0  0  0  0  0  0  0  0  0
   18.4564   -1.2835   14.2098 H   0  0  0  0  0  0  0  0  0  0  0  0
   16.5929   -0.0050   14.6517 H   0  0  0  0  0  0  0  0  0  0  0  0
   13.7536    1.2379   13.2630 H   0  0  0  0  0  0  0  0  0  0  0  0
   15.0458    1.3383   14.4382 H   0  0  0  0  0  0  0  0  0  0  0  0
   13.2378    0.5779   15.7153 H   0  0  0  0  0  0  0  0  0  0  0  0
   14.6246   -2.0004   14.9105 H   0  0  0  0  0  0  0  0  0  0  0  0
   15.2674   -0.7971   16.0512 H   0  0  0  0  0  0  0  0  0  0  0  0
   14.4072   -2.2507   17.5527 H   0  0  0  0  0  0  0  0  0  0  0  0
   13.0583   -1.1609   17.3273 H   0  0  0  0  0  0  0  0  0  0  0  0
   12.1796   -3.3827   17.2701 H   0  0  0  0  0  0  0  0  0  0  0  0
   13.4286   -3.9946   16.2529 H   0  0  0  0  0  0  0  0  0  0  0  0
   11.0880   -3.5542   15.1859 H   0  0  0  0  0  0  0  0  0  0  0  0
   12.5149   -3.1043   14.2791 H   0  0  0  0  0  0  0  0  0  0  0  0
   11.6904    0.1834   14.1251 H   0  0  0  0  0  0  0  0  0  0  0  0
  1  2  1  0
  2  3  2  0
  3  4  1  0
  4  5  2  0
  5  6  1  0
  6  7  1  0
  7  8  1  0
  8  9  1  0
  9 10  2  0
  9 11  1  0
 11 12  1  0
 12 13  1  0
 13 14  1  0
 14 15  1  0
 15 16  1  0
 16 17  1  0
 17 18  2  0
 17 19  1  0
  5 20  1  0
 20  2  1  0
 19 12  1  0
  1 21  1  0
  1 22  1  0
  6 23  1  0
  6 24  1  0
  7 25  1  0
  7 26  1  0
  8 27  1  0
 11 28  1  0
 11 29  1  0
 12 30  1  0
 13 31  1  0
 13 32  1  0
 14 33  1  0
 14 34  1  0
 15 35  1  0
 15 36  1  0
 16 37  1  0
 16 38  1  0
 19 39  1  0
M  END
>  <Energy>  (468) 
-16.793661459218153

>  <compound_id>  (468) 
62119

>  <target_id>  (468) 
1

>  <reference_id>  (468) 
98

>  <inspiration_ids>  (468) 
[97, 98]

>  <energy_score>  (468) 
-78.77022242338458

>  <distance_score>  (468) 
1.9424305903789725

>  <path>  (468) 
/opt/xchem-fragalysis-2/maxwin/BulkDock/SCRATCH/511021/C62119-P98/C62119-P98.minimised.mol

>  <scratch_subdir>  (468) 
/opt/xchem-fragalysis-2/maxwin/BulkDock/SCRATCH/511021/C62119-P98

>  <fragmenstein_runtime>  (468) 
1.6529738903045654

>  <fragmenstein_outcome>  (468) 
too moved

>  <fragmenstein_mode>  (468) 
expansion

>  <fragmenstein_error>  (468) 


$$$$
C62120-P97
     RDKit          3D

 36 37  0  0  0  0  0  0  0  0999 V2000
   16.6653   -0.1111   16.3948 O   0  0  0  0  0  0  0  0  0  0  0  0
   16.0163   -0.5123   15.5091 C   0  0  0  0  0  0  0  0  0  0  0  0
   14.6340    0.0675   15.1647 C   0  0  0  0  0  0  0  0  0  0  0  0
   13.5555   -0.9682   15.2256 C   0  0  0  0  0  0  0  0  0  0  0  0
   13.3075   -1.8417   16.2120 C   0  0  0  0  0  0  0  0  0  0  0  0
   12.2973   -2.8573   15.8158 C   0  0  0  0  0  0  0  0  0  0  0  0
   11.6729   -2.2414   14.5807 C   0  0  0  0  0  0  0  0  0  0  0  0
   12.6858   -1.2382   14.0422 C   0  0  0  0  0  0  0  0  0  0  0  0
   16.2895   -1.6643   14.5014 N   0  0  0  0  0  0  0  0  0  0  0  0
   17.3704   -2.6159   14.4387 C   0  0  0  0  0  0  0  0  0  0  0  0
   17.0399   -3.9022   15.2065 C   0  0  0  0  0  0  0  0  0  0  0  0
   16.6816   -3.6887   16.5995 N   0  0  0  0  0  0  0  0  0  0  0  0
   17.5851   -3.0901   17.5499 C   0  0  0  0  0  0  0  0  0  0  0  0
   16.6751   -2.8072   18.7315 C   0  0  0  0  0  0  0  0  0  0  0  0
   15.6190   -3.7646   18.5686 N   0  0  0  0  0  0  0  0  0  0  0  0
   15.5702   -4.2112   17.2598 C   0  0  0  0  0  0  0  0  0  0  0  0
   14.6808   -4.9240   16.8366 O   0  0  0  0  0  0  0  0  0  0  0  0
   14.7007    0.5071   14.1627 H   0  0  0  0  0  0  0  0  0  0  0  0
   14.4059    0.8827   15.8605 H   0  0  0  0  0  0  0  0  0  0  0  0
   13.8508   -1.8883   17.1455 H   0  0  0  0  0  0  0  0  0  0  0  0
   12.7840   -3.8050   15.5990 H   0  0  0  0  0  0  0  0  0  0  0  0
   11.5559   -3.0373   16.5837 H   0  0  0  0  0  0  0  0  0  0  0  0
   11.4134   -3.0026   13.8392 H   0  0  0  0  0  0  0  0  0  0  0  0
   10.7497   -1.7209   14.8652 H   0  0  0  0  0  0  0  0  0  0  0  0
   12.1857   -0.3337   13.6826 H   0  0  0  0  0  0  0  0  0  0  0  0
   13.2693   -1.6699   13.2223 H   0  0  0  0  0  0  0  0  0  0  0  0
   15.4768   -1.7986   13.9121 H   0  0  0  0  0  0  0  0  0  0  0  0
   18.2605   -2.1361   14.8564 H   0  0  0  0  0  0  0  0  0  0  0  0
   17.5562   -2.8415   13.3845 H   0  0  0  0  0  0  0  0  0  0  0  0
   17.8946   -4.5866   15.1827 H   0  0  0  0  0  0  0  0  0  0  0  0
   16.1993   -4.4053   14.7388 H   0  0  0  0  0  0  0  0  0  0  0  0
   18.3508   -3.8322   17.8013 H   0  0  0  0  0  0  0  0  0  0  0  0
   18.0644   -2.1877   17.1671 H   0  0  0  0  0  0  0  0  0  0  0  0
   16.2319   -1.8079   18.6734 H   0  0  0  0  0  0  0  0  0  0  0  0
   17.1669   -2.9363   19.6984 H   0  0  0  0  0  0  0  0  0  0  0  0
   14.8058   -3.8606   19.1623 H   0  0  0  0  0  0  0  0  0  0  0  0
  1  2  2  0
  2  3  1  0
  3  4  1  0
  4  5  2  0
  5  6  1  0
  6  7  1  0
  7  8  1  0
  2  9  1  0
  9 10  1  0
 10 11  1  0
 11 12  1  0
 12 13  1  0
 13 14  1  0
 14 15  1  0
 15 16  1  0
 16 17  2  0
  8  4  1  0
 16 12  1  0
  3 18  1  0
  3 19  1  0
  5 20  1  0
  6 21  1  0
  6 22  1  0
  7 23  1  0
  7 24  1  0
  8 25  1  0
  8 26  1  0
  9 27  1  0
 10 28  1  0
 10 29  1  0
 11 30  1  0
 11 31  1  0
 13 32  1  0
 13 33  1  0
 14 34  1  0
 14 35  1  0
 15 36  1  0
M  END
>  <Energy>  (469) 
-18.91100985815293

>  <compound_id>  (469) 
62120

>  <target_id>  (469) 
1

>  <reference_id>  (469) 
97

>  <inspiration_ids>  (469) 
[97, 98]

>  <energy_score>  (469) 
-13.751716387752026

>  <distance_score>  (469) 
1.9585893445529037

>  <path>  (469) 
/opt/xchem-fragalysis-2/maxwin/BulkDock/SCRATCH/511021/C62120-P97/C62120-P97.minimised.mol

>  <scratch_subdir>  (469) 
/opt/xchem-fragalysis-2/maxwin/BulkDock/SCRATCH/511021/C62120-P97

>  <fragmenstein_runtime>  (469) 
2.2404749393463135

>  <fragmenstein_outcome>  (469) 
too moved

>  <fragmenstein_mode>  (469) 
expansion

>  <fragmenstein_error>  (469) 


$$$$
C62120-P98
     RDKit          3D

 36 37  0  0  0  0  0  0  0  0999 V2000
   16.6068   -0.3668   15.6683 O   0  0  0  0  0  0  0  0  0  0  0  0
   16.0744   -0.9467   14.8048 C   0  0  0  0  0  0  0  0  0  0  0  0
   14.7907   -0.4407   14.1358 C   0  0  0  0  0  0  0  0  0  0  0  0
   13.5376   -1.1085   14.6069 C   0  0  0  0  0  0  0  0  0  0  0  0
   13.3609   -2.2681   15.2577 C   0  0  0  0  0  0  0  0  0  0  0  0
   11.9235   -2.6012   15.4523 C   0  0  0  0  0  0  0  0  0  0  0  0
   11.2789   -1.2407   15.2487 C   0  0  0  0  0  0  0  0  0  0  0  0
   12.2126   -0.4806   14.3134 C   0  0  0  0  0  0  0  0  0  0  0  0
   16.4467   -2.2862   14.1137 N   0  0  0  0  0  0  0  0  0  0  0  0
   17.4946   -3.2313   14.4077 C   0  0  0  0  0  0  0  0  0  0  0  0
   17.0496   -4.3143   15.3979 C   0  0  0  0  0  0  0  0  0  0  0  0
   16.5580   -3.8063   16.6689 N   0  0  0  0  0  0  0  0  0  0  0  0
   17.3600   -2.9711   17.5293 C   0  0  0  0  0  0  0  0  0  0  0  0
   16.3461   -2.4943   18.5532 C   0  0  0  0  0  0  0  0  0  0  0  0
   15.3653   -3.5418   18.5470 N   0  0  0  0  0  0  0  0  0  0  0  0
   15.4410   -4.2665   17.3712 C   0  0  0  0  0  0  0  0  0  0  0  0
   14.6356   -5.1248   17.0622 O   0  0  0  0  0  0  0  0  0  0  0  0
   14.8839   -0.5316   13.0475 H   0  0  0  0  0  0  0  0  0  0  0  0
   14.7316    0.6335   14.3527 H   0  0  0  0  0  0  0  0  0  0  0  0
   14.1468   -2.9354   15.5681 H   0  0  0  0  0  0  0  0  0  0  0  0
   11.5888   -3.3252   14.7036 H   0  0  0  0  0  0  0  0  0  0  0  0
   11.7369   -3.0028   16.4482 H   0  0  0  0  0  0  0  0  0  0  0  0
   10.2556   -1.3107   14.8740 H   0  0  0  0  0  0  0  0  0  0  0  0
   11.2283   -0.7052   16.2041 H   0  0  0  0  0  0  0  0  0  0  0  0
   12.1968    0.5902   14.5384 H   0  0  0  0  0  0  0  0  0  0  0  0
   11.9440   -0.6292   13.2627 H   0  0  0  0  0  0  0  0  0  0  0  0
   15.7175   -2.5424   13.4551 H   0  0  0  0  0  0  0  0  0  0  0  0
   18.3389   -2.6672   14.8160 H   0  0  0  0  0  0  0  0  0  0  0  0
   17.8132   -3.6827   13.4643 H   0  0  0  0  0  0  0  0  0  0  0  0
   16.2621   -4.9310   14.9682 H   0  0  0  0  0  0  0  0  0  0  0  0
   17.8922   -4.9792   15.6188 H   0  0  0  0  0  0  0  0  0  0  0  0
   17.8396   -2.1477   16.9997 H   0  0  0  0  0  0  0  0  0  0  0  0
   18.1273   -3.6026   17.9912 H   0  0  0  0  0  0  0  0  0  0  0  0
   15.8506   -1.5711   18.2356 H   0  0  0  0  0  0  0  0  0  0  0  0
   16.7662   -2.3642   19.5531 H   0  0  0  0  0  0  0  0  0  0  0  0
   14.5196   -3.5716   19.1025 H   0  0  0  0  0  0  0  0  0  0  0  0
  1  2  2  0
  2  3  1  0
  3  4  1  0
  4  5  2  0
  5  6  1  0
  6  7  1  0
  7  8  1  0
  2  9  1  0
  9 10  1  0
 10 11  1  0
 11 12  1  0
 12 13  1  0
 13 14  1  0
 14 15  1  0
 15 16  1  0
 16 17  2  0
  8  4  1  0
 16 12  1  0
  3 18  1  0
  3 19  1  0
  5 20  1  0
  6 21  1  0
  6 22  1  0
  7 23  1  0
  7 24  1  0
  8 25  1  0
  8 26  1  0
  9 27  1  0
 10 28  1  0
 10 29  1  0
 11 30  1  0
 11 31  1  0
 13 32  1  0
 13 33  1  0
 14 34  1  0
 14 35  1  0
 15 36  1  0
M  END
>  <Energy>  (470) 
-20.086540888798737

>  <compound_id>  (470) 
62120

>  <target_id>  (470) 
1

>  <reference_id>  (470) 
98

>  <inspiration_ids>  (470) 
[97, 98]

>  <energy_score>  (470) 
-14.927247418397329

>  <distance_score>  (470) 
1.9659091501109751

>  <path>  (470) 
/opt/xchem-fragalysis-2/maxwin/BulkDock/SCRATCH/511021/C62120-P98/C62120-P98.minimised.mol

>  <scratch_subdir>  (470) 
/opt/xchem-fragalysis-2/maxwin/BulkDock/SCRATCH/511021/C62120-P98

>  <fragmenstein_runtime>  (470) 
2.020519971847534

>  <fragmenstein_outcome>  (470) 
too moved

>  <fragmenstein_mode>  (470) 
expansion

>  <fragmenstein_error>  (470) 


$$$$
C62121-P97
     RDKit          3D

 47 48  0  0  0  0  0  0  0  0999 V2000
   13.3552   -6.4754   12.2218 N   0  0  0  0  0  0  0  0  0  0  0  0
   14.4423   -7.0264   14.2121 C   0  0  0  0  0  0  0  0  0  0  0  0
   15.4156   -5.7038   15.3805 C   0  0  0  0  0  0  0  0  0  0  0  0
   16.4870   -4.5452   14.7932 C   0  0  0  0  0  0  0  0  0  0  0  0
   16.1072   -3.0872   14.3141 C   0  0  0  0  0  0  0  0  0  0  0  0
   15.7685   -2.8563   13.2205 O   0  0  0  0  0  0  0  0  0  0  0  0
   16.3260   -2.1327   15.5242 N   0  0  0  0  0  0  0  0  0  0  0  0
   16.2639   -0.6932   15.6049 C   0  0  0  0  0  0  0  0  0  0  0  0
   15.2564   -0.0093   14.6869 C   0  0  0  0  0  0  0  0  0  0  0  0
   13.7664   -0.2669   14.9529 C   0  0  0  0  0  0  0  0  0  0  0  0
   13.0339   -0.7947   13.7283 C   0  0  0  0  0  0  0  0  0  0  0  0
   11.8730   -1.6029   14.2881 C   0  0  0  0  0  0  0  0  0  0  0  0
   12.3838   -2.0477   15.6168 C   0  0  0  0  0  0  0  0  0  0  0  0
   11.9324   -2.9425   16.3092 O   0  0  0  0  0  0  0  0  0  0  0  0
   13.4514   -1.2421   15.9515 N   0  0  0  0  0  0  0  0  0  0  0  0
   14.3480   -4.8505   16.2473 C   0  0  0  0  0  0  0  0  0  0  0  0
   14.5546   -4.3804   17.6729 C   0  0  0  0  0  0  0  0  0  0  0  0
   16.1685   -4.5431   18.3119 S   0  0  0  0  0  0  0  0  0  0  0  0
   17.0080   -3.5527   17.6693 O   0  0  0  0  0  0  0  0  0  0  0  0
   16.0654   -4.5733   19.7576 O   0  0  0  0  0  0  0  0  0  0  0  0
   16.6219   -6.1621   17.7796 C   0  0  0  0  0  0  0  0  0  0  0  0
   16.5206   -6.4772   16.2865 C   0  0  0  0  0  0  0  0  0  0  0  0
   13.5533   -5.5474   11.7762 H   0  0  0  0  0  0  0  0  0  0  0  0
   12.3062   -6.4800   12.1631 H   0  0  0  0  0  0  0  0  0  0  0  0
   13.8663   -7.6543   14.9614 H   0  0  0  0  0  0  0  0  0  0  0  0
   15.3766   -7.7690   14.2229 H   0  0  0  0  0  0  0  0  0  0  0  0
   17.2095   -4.3466   15.5876 H   0  0  0  0  0  0  0  0  0  0  0  0
   17.2001   -4.9860   14.0907 H   0  0  0  0  0  0  0  0  0  0  0  0
   16.7050   -2.6611   16.3121 H   0  0  0  0  0  0  0  0  0  0  0  0
   17.2693   -0.3345   15.3581 H   0  0  0  0  0  0  0  0  0  0  0  0
   16.0774   -0.4313   16.6518 H   0  0  0  0  0  0  0  0  0  0  0  0
   15.5054   -0.2392   13.6436 H   0  0  0  0  0  0  0  0  0  0  0  0
   15.4182    1.0741   14.7717 H   0  0  0  0  0  0  0  0  0  0  0  0
   13.2945    0.6671   15.2839 H   0  0  0  0  0  0  0  0  0  0  0  0
   12.6988    0.0135   13.0711 H   0  0  0  0  0  0  0  0  0  0  0  0
   13.6659   -1.4592   13.1301 H   0  0  0  0  0  0  0  0  0  0  0  0
   10.9916   -0.9773   14.4511 H   0  0  0  0  0  0  0  0  0  0  0  0
   11.6460   -2.4671   13.6610 H   0  0  0  0  0  0  0  0  0  0  0  0
   13.9092   -1.3303   16.8479 H   0  0  0  0  0  0  0  0  0  0  0  0
   13.3819   -5.3608   16.2524 H   0  0  0  0  0  0  0  0  0  0  0  0
   14.1518   -3.9294   15.7044 H   0  0  0  0  0  0  0  0  0  0  0  0
   14.2750   -3.3292   17.7891 H   0  0  0  0  0  0  0  0  0  0  0  0
   13.8965   -4.9364   18.3498 H   0  0  0  0  0  0  0  0  0  0  0  0
   16.0269   -6.8607   18.3740 H   0  0  0  0  0  0  0  0  0  0  0  0
   17.6586   -6.3081   18.1064 H   0  0  0  0  0  0  0  0  0  0  0  0
   17.5226   -6.3018   15.8668 H   0  0  0  0  0  0  0  0  0  0  0  0
   16.4946   -7.5670   16.1487 H   0  0  0  0  0  0  0  0  0  0  0  0
  1  2  1  0
  2  3  1  0
  3  4  1  0
  4  5  1  0
  5  6  2  0
  5  7  1  0
  7  8  1  0
  8  9  1  0
  9 10  1  0
 10 11  1  0
 11 12  1  0
 12 13  1  0
 13 14  2  0
 13 15  1  0
  3 16  1  0
 16 17  1  0
 17 18  1  0
 18 19  2  0
 18 20  2  0
 18 21  1  0
 21 22  1  0
 22  3  1  0
 15 10  1  0
  1 23  1  0
  1 24  1  0
  2 25  1  0
  2 26  1  0
  4 27  1  0
  4 28  1  0
  7 29  1  0
  8 30  1  0
  8 31  1  0
  9 32  1  0
  9 33  1  0
 10 34  1  0
 11 35  1  0
 11 36  1  0
 12 37  1  0
 12 38  1  0
 15 39  1  0
 16 40  1  0
 16 41  1  0
 17 42  1  0
 17 43  1  0
 21 44  1  0
 21 45  1  0
 22 46  1  0
 22 47  1  0
M  END
>  <Energy>  (471) 
449.69915734952377

>  <compound_id>  (471) 
62121

>  <target_id>  (471) 
1

>  <reference_id>  (471) 
97

>  <inspiration_ids>  (471) 
[97, 98]

>  <energy_score>  (471) 
413.116058289843

>  <distance_score>  (471) 
2.2996674756913067

>  <path>  (471) 
/opt/xchem-fragalysis-2/maxwin/BulkDock/SCRATCH/511021/C62121-P97/C62121-P97.minimised.mol

>  <scratch_subdir>  (471) 
/opt/xchem-fragalysis-2/maxwin/BulkDock/SCRATCH/511021/C62121-P97

>  <fragmenstein_runtime>  (471) 
4.77690315246582

>  <fragmenstein_outcome>  (471) 
too moved

>  <fragmenstein_mode>  (471) 
expansion

>  <fragmenstein_error>  (471) 


$$$$
C62121-P98
     RDKit          3D

 47 48  0  0  0  0  0  0  0  0999 V2000
   17.3603   -6.8717   15.4370 N   0  0  0  0  0  0  0  0  0  0  0  0
   18.0462   -5.5876   15.5931 C   0  0  0  0  0  0  0  0  0  0  0  0
   17.2424   -4.5266   16.4307 C   0  0  0  0  0  0  0  0  0  0  0  0
   18.1091   -3.2224   16.3605 C   0  0  0  0  0  0  0  0  0  0  0  0
   17.8839   -2.3785   15.1024 C   0  0  0  0  0  0  0  0  0  0  0  0
   18.3932   -2.6352   14.0843 O   0  0  0  0  0  0  0  0  0  0  0  0
   16.8935   -1.2445   15.4724 N   0  0  0  0  0  0  0  0  0  0  0  0
   16.2536   -0.2516   14.6428 C   0  0  0  0  0  0  0  0  0  0  0  0
   14.8727    0.1692   15.1500 C   0  0  0  0  0  0  0  0  0  0  0  0
   13.7288   -0.1537   14.1690 C   0  0  0  0  0  0  0  0  0  0  0  0
   12.3908    0.3721   14.6753 C   0  0  0  0  0  0  0  0  0  0  0  0
   11.8001   -0.7779   15.4809 C   0  0  0  0  0  0  0  0  0  0  0  0
   12.3884   -1.9852   14.8202 C   0  0  0  0  0  0  0  0  0  0  0  0
   12.0586   -3.1391   15.0274 O   0  0  0  0  0  0  0  0  0  0  0  0
   13.4480   -1.5572   14.0330 N   0  0  0  0  0  0  0  0  0  0  0  0
   15.8263   -4.3708   15.8222 C   0  0  0  0  0  0  0  0  0  0  0  0
   14.7748   -3.5270   16.5078 C   0  0  0  0  0  0  0  0  0  0  0  0
   15.0906   -3.2307   18.1971 S   0  0  0  0  0  0  0  0  0  0  0  0
   16.0524   -2.1477   18.2506 O   0  0  0  0  0  0  0  0  0  0  0  0
   13.8303   -3.1351   18.8951 O   0  0  0  0  0  0  0  0  0  0  0  0
   15.8604   -4.7404   18.6670 C   0  0  0  0  0  0  0  0  0  0  0  0
   17.1488   -5.0235   17.9109 C   0  0  0  0  0  0  0  0  0  0  0  0
   16.7374   -6.7919   14.6288 H   0  0  0  0  0  0  0  0  0  0  0  0
   18.0452   -7.5768   15.1574 H   0  0  0  0  0  0  0  0  0  0  0  0
   19.0089   -5.7777   16.0843 H   0  0  0  0  0  0  0  0  0  0  0  0
   18.2736   -5.2038   14.5924 H   0  0  0  0  0  0  0  0  0  0  0  0
   18.0138   -2.6000   17.2498 H   0  0  0  0  0  0  0  0  0  0  0  0
   19.1776   -3.4829   16.3676 H   0  0  0  0  0  0  0  0  0  0  0  0
   16.7116   -1.2643   16.4786 H   0  0  0  0  0  0  0  0  0  0  0  0
   16.2277   -0.6341   13.6175 H   0  0  0  0  0  0  0  0  0  0  0  0
   16.9249    0.6141   14.6468 H   0  0  0  0  0  0  0  0  0  0  0  0
   14.8903    1.2585   15.2876 H   0  0  0  0  0  0  0  0  0  0  0  0
   14.6672   -0.2579   16.1386 H   0  0  0  0  0  0  0  0  0  0  0  0
   13.9559    0.2562   13.1788 H   0  0  0  0  0  0  0  0  0  0  0  0
   11.7339    0.5765   13.8189 H   0  0  0  0  0  0  0  0  0  0  0  0
   12.4660    1.2972   15.2548 H   0  0  0  0  0  0  0  0  0  0  0  0
   12.1422   -0.7505   16.5181 H   0  0  0  0  0  0  0  0  0  0  0  0
   10.7089   -0.7914   15.4348 H   0  0  0  0  0  0  0  0  0  0  0  0
   14.0175   -2.2170   13.5166 H   0  0  0  0  0  0  0  0  0  0  0  0
   15.9273   -4.0329   14.7876 H   0  0  0  0  0  0  0  0  0  0  0  0
   15.3885   -5.3701   15.7726 H   0  0  0  0  0  0  0  0  0  0  0  0
   14.6880   -2.5543   16.0383 H   0  0  0  0  0  0  0  0  0  0  0  0
   13.8078   -4.0331   16.4520 H   0  0  0  0  0  0  0  0  0  0  0  0
   15.1278   -5.5349   18.5054 H   0  0  0  0  0  0  0  0  0  0  0  0
   16.0529   -4.6925   19.7437 H   0  0  0  0  0  0  0  0  0  0  0  0
   17.9822   -4.5878   18.4788 H   0  0  0  0  0  0  0  0  0  0  0  0
   17.3194   -6.1057   17.9711 H   0  0  0  0  0  0  0  0  0  0  0  0
  1  2  1  0
  2  3  1  0
  3  4  1  0
  4  5  1  0
  5  6  2  0
  5  7  1  0
  7  8  1  0
  8  9  1  0
  9 10  1  0
 10 11  1  0
 11 12  1  0
 12 13  1  0
 13 14  2  0
 13 15  1  0
  3 16  1  0
 16 17  1  0
 17 18  1  0
 18 19  2  0
 18 20  2  0
 18 21  1  0
 21 22  1  0
 22  3  1  0
 15 10  1  0
  1 23  1  0
  1 24  1  0
  2 25  1  0
  2 26  1  0
  4 27  1  0
  4 28  1  0
  7 29  1  0
  8 30  1  0
  8 31  1  0
  9 32  1  0
  9 33  1  0
 10 34  1  0
 11 35  1  0
 11 36  1  0
 12 37  1  0
 12 38  1  0
 15 39  1  0
 16 40  1  0
 16 41  1  0
 17 42  1  0
 17 43  1  0
 21 44  1  0
 21 45  1  0
 22 46  1  0
 22 47  1  0
M  END
>  <Energy>  (472) 
4.9795553901483895

>  <compound_id>  (472) 
62121

>  <target_id>  (472) 
1

>  <reference_id>  (472) 
98

>  <inspiration_ids>  (472) 
[97, 98]

>  <energy_score>  (472) 
-31.603543669533963

>  <distance_score>  (472) 
2.2619927084557174

>  <path>  (472) 
/opt/xchem-fragalysis-2/maxwin/BulkDock/SCRATCH/511021/C62121-P98/C62121-P98.minimised.mol

>  <scratch_subdir>  (472) 
/opt/xchem-fragalysis-2/maxwin/BulkDock/SCRATCH/511021/C62121-P98

>  <fragmenstein_runtime>  (472) 
3.484805107116699

>  <fragmenstein_outcome>  (472) 
too moved

>  <fragmenstein_mode>  (472) 
expansion

>  <fragmenstein_error>  (472) 


$$$$
C5418-P97
     RDKit          3D

 49 50  0  0  0  0  0  0  0  0999 V2000
   14.3812    0.1155   11.7286 N   0  0  0  0  0  0  0  0  0  0  0  0
   14.4034   -0.9702   12.7078 C   0  0  0  0  0  0  0  0  0  0  0  0
   14.4070   -0.4384   14.1802 C   0  0  0  0  0  0  0  0  0  0  0  0
   15.6662    0.4914   14.3917 C   0  0  0  0  0  0  0  0  0  0  0  0
   16.9347   -0.0750   13.7256 C   0  0  0  0  0  0  0  0  0  0  0  0
   17.2876    0.2501   12.6633 O   0  0  0  0  0  0  0  0  0  0  0  0
   17.4939   -1.1507   14.6792 N   0  0  0  0  0  0  0  0  0  0  0  0
   18.5451   -2.1166   14.4868 C   0  0  0  0  0  0  0  0  0  0  0  0
   17.9754   -3.5063   14.8810 C   0  0  0  0  0  0  0  0  0  0  0  0
   17.1623   -3.4333   16.1155 N   0  0  0  0  0  0  0  0  0  0  0  0
   17.9489   -3.2260   17.3330 C   0  0  0  0  0  0  0  0  0  0  0  0
   16.9786   -2.8041   18.4437 C   0  0  0  0  0  0  0  0  0  0  0  0
   15.8150   -3.6539   18.5478 N   0  0  0  0  0  0  0  0  0  0  0  0
   15.3846   -4.4657   17.5363 C   0  0  0  0  0  0  0  0  0  0  0  0
   14.3233   -5.0692   17.6740 O   0  0  0  0  0  0  0  0  0  0  0  0
   16.3121   -4.6311   16.3141 C   0  0  0  0  0  0  0  0  0  0  0  0
   14.4702   -1.6405   15.1677 C   0  0  0  0  0  0  0  0  0  0  0  0
   13.1925   -2.0880   15.8430 C   0  0  0  0  0  0  0  0  0  0  0  0
   11.7753   -2.0516   14.8259 S   0  0  0  0  0  0  0  0  0  0  0  0
   10.6626   -2.1777   15.7406 O   0  0  0  0  0  0  0  0  0  0  0  0
   11.9835   -2.9968   13.7510 O   0  0  0  0  0  0  0  0  0  0  0  0
   11.8095   -0.3772   14.1996 C   0  0  0  0  0  0  0  0  0  0  0  0
   13.1172    0.3711   14.4744 C   0  0  0  0  0  0  0  0  0  0  0  0
   14.3110   -0.3037   10.7994 H   0  0  0  0  0  0  0  0  0  0  0  0
   15.3116    0.5531   11.7128 H   0  0  0  0  0  0  0  0  0  0  0  0
   13.5392   -1.6053   12.5209 H   0  0  0  0  0  0  0  0  0  0  0  0
   15.2706   -1.6124   12.5143 H   0  0  0  0  0  0  0  0  0  0  0  0
   15.8506    0.6790   15.4562 H   0  0  0  0  0  0  0  0  0  0  0  0
   15.4905    1.4790   13.9455 H   0  0  0  0  0  0  0  0  0  0  0  0
   16.8971   -1.2269   15.4879 H   0  0  0  0  0  0  0  0  0  0  0  0
   18.8696   -2.1014   13.4427 H   0  0  0  0  0  0  0  0  0  0  0  0
   19.3829   -1.8311   15.1286 H   0  0  0  0  0  0  0  0  0  0  0  0
   18.7815   -4.2440   14.9653 H   0  0  0  0  0  0  0  0  0  0  0  0
   17.3247   -3.8224   14.0588 H   0  0  0  0  0  0  0  0  0  0  0  0
   18.6886   -2.4274   17.2153 H   0  0  0  0  0  0  0  0  0  0  0  0
   18.4937   -4.1361   17.6146 H   0  0  0  0  0  0  0  0  0  0  0  0
   17.4820   -2.8084   19.4155 H   0  0  0  0  0  0  0  0  0  0  0  0
   16.6102   -1.7879   18.2613 H   0  0  0  0  0  0  0  0  0  0  0  0
   15.1745   -3.5571   19.3277 H   0  0  0  0  0  0  0  0  0  0  0  0
   15.6681   -4.7583   15.4481 H   0  0  0  0  0  0  0  0  0  0  0  0
   16.9107   -5.5391   16.4496 H   0  0  0  0  0  0  0  0  0  0  0  0
   15.1202   -1.3924   16.0114 H   0  0  0  0  0  0  0  0  0  0  0  0
   14.9264   -2.4947   14.6602 H   0  0  0  0  0  0  0  0  0  0  0  0
   13.2900   -3.1076   16.2227 H   0  0  0  0  0  0  0  0  0  0  0  0
   12.9812   -1.4446   16.7047 H   0  0  0  0  0  0  0  0  0  0  0  0
   10.9801    0.1611   14.6707 H   0  0  0  0  0  0  0  0  0  0  0  0
   11.6069   -0.4150   13.1320 H   0  0  0  0  0  0  0  0  0  0  0  0
   13.1057    1.3016   13.8930 H   0  0  0  0  0  0  0  0  0  0  0  0
   13.1300    0.6864   15.5267 H   0  0  0  0  0  0  0  0  0  0  0  0
  1  2  1  0
  2  3  1  0
  3  4  1  0
  4  5  1  0
  5  6  2  0
  5  7  1  0
  7  8  1  0
  8  9  1  0
  9 10  1  0
 10 11  1  0
 11 12  1  0
 12 13  1  0
 13 14  1  0
 14 15  2  0
 14 16  1  0
  3 17  1  0
 17 18  1  0
 18 19  1  0
 19 20  2  0
 19 21  2  0
 19 22  1  0
 22 23  1  0
 23  3  1  0
 16 10  1  0
  1 24  1  0
  1 25  1  0
  2 26  1  0
  2 27  1  0
  4 28  1  0
  4 29  1  0
  7 30  1  0
  8 31  1  0
  8 32  1  0
  9 33  1  0
  9 34  1  0
 11 35  1  0
 11 36  1  0
 12 37  1  0
 12 38  1  0
 13 39  1  0
 16 40  1  0
 16 41  1  0
 17 42  1  0
 17 43  1  0
 18 44  1  0
 18 45  1  0
 22 46  1  0
 22 47  1  0
 23 48  1  0
 23 49  1  0
M  END
>  <Energy>  (473) 
97.454119264391991

>  <compound_id>  (473) 
5418

>  <target_id>  (473) 
1

>  <reference_id>  (473) 
97

>  <inspiration_ids>  (473) 
[97, 98]

>  <energy_score>  (473) 
-34.37713704842318

>  <distance_score>  (473) 
1.972470759479204

>  <path>  (473) 
/opt/xchem-fragalysis-2/maxwin/BulkDock/SCRATCH/511021/C5418-P97/C5418-P97.minimised.mol

>  <scratch_subdir>  (473) 
/opt/xchem-fragalysis-2/maxwin/BulkDock/SCRATCH/511021/C5418-P97

>  <fragmenstein_runtime>  (473) 
10.418434619903564

>  <fragmenstein_outcome>  (473) 
too moved

>  <fragmenstein_mode>  (473) 
expansion

>  <fragmenstein_error>  (473) 


$$$$
C5418-P98
     RDKit          3D

 49 50  0  0  0  0  0  0  0  0999 V2000
   15.0545   -1.2610   11.9017 N   0  0  0  0  0  0  0  0  0  0  0  0
   14.5027   -1.7452   13.1633 C   0  0  0  0  0  0  0  0  0  0  0  0
   14.2985   -0.6247   14.2313 C   0  0  0  0  0  0  0  0  0  0  0  0
   15.5093    0.3729   14.2592 C   0  0  0  0  0  0  0  0  0  0  0  0
   16.7601   -0.2182   14.9092 C   0  0  0  0  0  0  0  0  0  0  0  0
   17.1281    0.1297   15.9606 O   0  0  0  0  0  0  0  0  0  0  0  0
   17.2871   -1.3402   13.9832 N   0  0  0  0  0  0  0  0  0  0  0  0
   18.3159   -2.3289   14.2005 C   0  0  0  0  0  0  0  0  0  0  0  0
   18.3235   -2.8712   15.6447 C   0  0  0  0  0  0  0  0  0  0  0  0
   17.9015   -4.2658   15.8756 N   0  0  0  0  0  0  0  0  0  0  0  0
   18.2650   -4.7083   17.2369 C   0  0  0  0  0  0  0  0  0  0  0  0
   17.4881   -3.9697   18.3483 C   0  0  0  0  0  0  0  0  0  0  0  0
   16.1257   -3.6219   17.9758 N   0  0  0  0  0  0  0  0  0  0  0  0
   15.5937   -4.4102   16.9764 C   0  0  0  0  0  0  0  0  0  0  0  0
   14.4995   -4.9491   17.1163 O   0  0  0  0  0  0  0  0  0  0  0  0
   16.4495   -4.5168   15.6881 C   0  0  0  0  0  0  0  0  0  0  0  0
   14.0962   -1.2111   15.6521 C   0  0  0  0  0  0  0  0  0  0  0  0
   13.0810   -2.3183   15.7588 C   0  0  0  0  0  0  0  0  0  0  0  0
   11.5725   -2.0870   14.8856 S   0  0  0  0  0  0  0  0  0  0  0  0
   10.5835   -1.7451   15.8865 O   0  0  0  0  0  0  0  0  0  0  0  0
   11.4319   -3.2637   14.0490 O   0  0  0  0  0  0  0  0  0  0  0  0
   11.7642   -0.6764   13.8036 C   0  0  0  0  0  0  0  0  0  0  0  0
   13.0124    0.1749   13.9463 C   0  0  0  0  0  0  0  0  0  0  0  0
   15.1389   -2.0592   11.2625 H   0  0  0  0  0  0  0  0  0  0  0  0
   14.3810   -0.6417   11.4494 H   0  0  0  0  0  0  0  0  0  0  0  0
   13.5793   -2.2734   12.9256 H   0  0  0  0  0  0  0  0  0  0  0  0
   15.1690   -2.5133   13.5519 H   0  0  0  0  0  0  0  0  0  0  0  0
   15.2381    1.2552   14.8556 H   0  0  0  0  0  0  0  0  0  0  0  0
   15.7635    0.7605   13.2668 H   0  0  0  0  0  0  0  0  0  0  0  0
   16.7808   -1.3164   13.0958 H   0  0  0  0  0  0  0  0  0  0  0  0
   18.1773   -3.1295   13.4671 H   0  0  0  0  0  0  0  0  0  0  0  0
   19.2690   -1.8345   13.9847 H   0  0  0  0  0  0  0  0  0  0  0  0
   17.7962   -2.1959   16.3212 H   0  0  0  0  0  0  0  0  0  0  0  0
   19.3781   -2.8197   15.9506 H   0  0  0  0  0  0  0  0  0  0  0  0
   19.3442   -4.6128   17.4082 H   0  0  0  0  0  0  0  0  0  0  0  0
   18.0579   -5.7847   17.3127 H   0  0  0  0  0  0  0  0  0  0  0  0
   17.4343   -4.5978   19.2440 H   0  0  0  0  0  0  0  0  0  0  0  0
   17.9967   -3.0388   18.6232 H   0  0  0  0  0  0  0  0  0  0  0  0
   16.1080   -2.6485   17.7036 H   0  0  0  0  0  0  0  0  0  0  0  0
   16.0336   -3.8555   14.9322 H   0  0  0  0  0  0  0  0  0  0  0  0
   16.3493   -5.5498   15.3398 H   0  0  0  0  0  0  0  0  0  0  0  0
   13.8174   -0.4056   16.3452 H   0  0  0  0  0  0  0  0  0  0  0  0
   15.0365   -1.6131   16.0386 H   0  0  0  0  0  0  0  0  0  0  0  0
   12.8323   -2.4970   16.8101 H   0  0  0  0  0  0  0  0  0  0  0  0
   13.5145   -3.2445   15.3882 H   0  0  0  0  0  0  0  0  0  0  0  0
   10.8754   -0.0482   13.9234 H   0  0  0  0  0  0  0  0  0  0  0  0
   11.7463   -1.0783   12.7924 H   0  0  0  0  0  0  0  0  0  0  0  0
   13.1313    0.7748   13.0347 H   0  0  0  0  0  0  0  0  0  0  0  0
   12.8438    0.9012   14.7532 H   0  0  0  0  0  0  0  0  0  0  0  0
  1  2  1  0
  2  3  1  0
  3  4  1  0
  4  5  1  0
  5  6  2  0
  5  7  1  0
  7  8  1  0
  8  9  1  0
  9 10  1  0
 10 11  1  0
 11 12  1  0
 12 13  1  0
 13 14  1  0
 14 15  2  0
 14 16  1  0
  3 17  1  0
 17 18  1  0
 18 19  1  0
 19 20  2  0
 19 21  2  0
 19 22  1  0
 22 23  1  0
 23  3  1  0
 16 10  1  0
  1 24  1  0
  1 25  1  0
  2 26  1  0
  2 27  1  0
  4 28  1  0
  4 29  1  0
  7 30  1  0
  8 31  1  0
  8 32  1  0
  9 33  1  0
  9 34  1  0
 11 35  1  0
 11 36  1  0
 12 37  1  0
 12 38  1  0
 13 39  1  0
 16 40  1  0
 16 41  1  0
 17 42  1  0
 17 43  1  0
 18 44  1  0
 18 45  1  0
 22 46  1  0
 22 47  1  0
 23 48  1  0
 23 49  1  0
M  END
>  <Energy>  (474) 
124.62325685530692

>  <compound_id>  (474) 
5418

>  <target_id>  (474) 
1

>  <reference_id>  (474) 
98

>  <inspiration_ids>  (474) 
[97, 98]

>  <energy_score>  (474) 
-7.207999457507469

>  <distance_score>  (474) 
1.812661640158274

>  <path>  (474) 
/opt/xchem-fragalysis-2/maxwin/BulkDock/SCRATCH/511021/C5418-P98/C5418-P98.minimised.mol

>  <scratch_subdir>  (474) 
/opt/xchem-fragalysis-2/maxwin/BulkDock/SCRATCH/511021/C5418-P98

>  <fragmenstein_runtime>  (474) 
7.643161773681641

>  <fragmenstein_outcome>  (474) 
too moved

>  <fragmenstein_mode>  (474) 
expansion

>  <fragmenstein_error>  (474) 


$$$$
C62122-P97
     RDKit          3D

 46 47  0  0  0  0  0  0  0  0999 V2000
   15.7202    1.6886   15.9188 N   0  0  0  0  0  0  0  0  0  0  0  0
   14.6258    1.5869   14.9666 C   0  0  0  0  0  0  0  0  0  0  0  0
   14.2214    0.1272   14.5693 C   0  0  0  0  0  0  0  0  0  0  0  0
   15.2393   -0.4755   13.5434 C   0  0  0  0  0  0  0  0  0  0  0  0
   16.5891   -0.9159   14.1187 C   0  0  0  0  0  0  0  0  0  0  0  0
   17.3090   -0.1695   14.6536 O   0  0  0  0  0  0  0  0  0  0  0  0
   16.7187   -2.4405   13.8837 N   0  0  0  0  0  0  0  0  0  0  0  0
   17.7134   -3.3755   14.3406 C   0  0  0  0  0  0  0  0  0  0  0  0
   17.1416   -4.3277   15.3918 C   0  0  0  0  0  0  0  0  0  0  0  0
   16.6277   -3.6694   16.5838 N   0  0  0  0  0  0  0  0  0  0  0  0
   17.4716   -2.8387   17.4089 C   0  0  0  0  0  0  0  0  0  0  0  0
   16.5559   -2.4261   18.5488 C   0  0  0  0  0  0  0  0  0  0  0  0
   15.4883   -3.3793   18.4888 N   0  0  0  0  0  0  0  0  0  0  0  0
   15.5348   -4.1194   17.3262 C   0  0  0  0  0  0  0  0  0  0  0  0
   14.7251   -4.9837   17.0515 O   0  0  0  0  0  0  0  0  0  0  0  0
   14.0968   -0.7340   15.8567 C   0  0  0  0  0  0  0  0  0  0  0  0
   13.5458   -2.1293   15.6510 C   0  0  0  0  0  0  0  0  0  0  0  0
   11.9888   -2.1656   14.8282 S   0  0  0  0  0  0  0  0  0  0  0  0
   11.0179   -2.6439   15.7873 O   0  0  0  0  0  0  0  0  0  0  0  0
   12.1784   -2.8121   13.5476 O   0  0  0  0  0  0  0  0  0  0  0  0
   11.6806   -0.4330   14.5463 C   0  0  0  0  0  0  0  0  0  0  0  0
   12.8447    0.2293   13.8255 C   0  0  0  0  0  0  0  0  0  0  0  0
   16.5400    1.1741   15.5642 H   0  0  0  0  0  0  0  0  0  0  0  0
   16.0315    2.6571   15.9893 H   0  0  0  0  0  0  0  0  0  0  0  0
   13.7639    2.0892   15.4231 H   0  0  0  0  0  0  0  0  0  0  0  0
   14.8808    2.1573   14.0652 H   0  0  0  0  0  0  0  0  0  0  0  0
   15.4588    0.2593   12.7574 H   0  0  0  0  0  0  0  0  0  0  0  0
   14.7650   -1.3151   13.0238 H   0  0  0  0  0  0  0  0  0  0  0  0
   15.9461   -2.7622   13.3088 H   0  0  0  0  0  0  0  0  0  0  0  0
   18.5539   -2.8039   14.7459 H   0  0  0  0  0  0  0  0  0  0  0  0
   18.0703   -3.9349   13.4715 H   0  0  0  0  0  0  0  0  0  0  0  0
   16.3336   -4.9276   14.9758 H   0  0  0  0  0  0  0  0  0  0  0  0
   17.9189   -5.0283   15.7182 H   0  0  0  0  0  0  0  0  0  0  0  0
   18.3052   -3.4480   17.7750 H   0  0  0  0  0  0  0  0  0  0  0  0
   17.8573   -1.9789   16.8566 H   0  0  0  0  0  0  0  0  0  0  0  0
   16.1313   -1.4297   18.3969 H   0  0  0  0  0  0  0  0  0  0  0  0
   17.0467   -2.4660   19.5246 H   0  0  0  0  0  0  0  0  0  0  0  0
   14.7573   -3.5205   19.1748 H   0  0  0  0  0  0  0  0  0  0  0  0
   15.0731   -0.8319   16.3427 H   0  0  0  0  0  0  0  0  0  0  0  0
   13.4655   -0.2088   16.5862 H   0  0  0  0  0  0  0  0  0  0  0  0
   13.3930   -2.6038   16.6237 H   0  0  0  0  0  0  0  0  0  0  0  0
   14.2460   -2.7321   15.0786 H   0  0  0  0  0  0  0  0  0  0  0  0
   11.4860    0.0376   15.5152 H   0  0  0  0  0  0  0  0  0  0  0  0
   10.7688   -0.3350   13.9593 H   0  0  0  0  0  0  0  0  0  0  0  0
   12.5793    1.2786   13.6444 H   0  0  0  0  0  0  0  0  0  0  0  0
   12.9231   -0.2102   12.8259 H   0  0  0  0  0  0  0  0  0  0  0  0
  1  2  1  0
  2  3  1  0
  3  4  1  0
  4  5  1  0
  5  6  2  0
  5  7  1  0
  7  8  1  0
  8  9  1  0
  9 10  1  0
 10 11  1  0
 11 12  1  0
 12 13  1  0
 13 14  1  0
 14 15  2  0
  3 16  1  0
 16 17  1  0
 17 18  1  0
 18 19  2  0
 18 20  2  0
 18 21  1  0
 21 22  1  0
 22  3  1  0
 14 10  1  0
  1 23  1  0
  1 24  1  0
  2 25  1  0
  2 26  1  0
  4 27  1  0
  4 28  1  0
  7 29  1  0
  8 30  1  0
  8 31  1  0
  9 32  1  0
  9 33  1  0
 11 34  1  0
 11 35  1  0
 12 36  1  0
 12 37  1  0
 13 38  1  0
 16 39  1  0
 16 40  1  0
 17 41  1  0
 17 42  1  0
 21 43  1  0
 21 44  1  0
 22 45  1  0
 22 46  1  0
M  END
>  <Energy>  (475) 
-28.754097691502992

>  <compound_id>  (475) 
62122

>  <target_id>  (475) 
1

>  <reference_id>  (475) 
97

>  <inspiration_ids>  (475) 
[97, 98]

>  <energy_score>  (475) 
-24.691820850505746

>  <distance_score>  (475) 
1.9375925696321323

>  <path>  (475) 
/opt/xchem-fragalysis-2/maxwin/BulkDock/SCRATCH/511021/C62122-P97/C62122-P97.minimised.mol

>  <scratch_subdir>  (475) 
/opt/xchem-fragalysis-2/maxwin/BulkDock/SCRATCH/511021/C62122-P97

>  <fragmenstein_runtime>  (475) 
6.289686441421509

>  <fragmenstein_outcome>  (475) 
too moved

>  <fragmenstein_mode>  (475) 
expansion

>  <fragmenstein_error>  (475) 


$$$$
C62122-P98
     RDKit          3D

 46 47  0  0  0  0  0  0  0  0999 V2000
   15.0163   -0.3182   16.7698 N   0  0  0  0  0  0  0  0  0  0  0  0
   14.3174    0.3906   15.7172 C   0  0  0  0  0  0  0  0  0  0  0  0
   14.2346   -0.3722   14.3508 C   0  0  0  0  0  0  0  0  0  0  0  0
   15.5486   -0.0580   13.5352 C   0  0  0  0  0  0  0  0  0  0  0  0
   16.8544   -0.5134   14.2299 C   0  0  0  0  0  0  0  0  0  0  0  0
   17.4528    0.1892   14.9461 O   0  0  0  0  0  0  0  0  0  0  0  0
   17.0797   -2.0067   13.8652 N   0  0  0  0  0  0  0  0  0  0  0  0
   18.0277   -2.9628   14.3793 C   0  0  0  0  0  0  0  0  0  0  0  0
   17.3317   -4.0546   15.2184 C   0  0  0  0  0  0  0  0  0  0  0  0
   16.7223   -3.6059   16.4637 N   0  0  0  0  0  0  0  0  0  0  0  0
   17.4292   -2.7592   17.3934 C   0  0  0  0  0  0  0  0  0  0  0  0
   16.5416   -2.7331   18.6265 C   0  0  0  0  0  0  0  0  0  0  0  0
   15.3633   -3.4518   18.2413 N   0  0  0  0  0  0  0  0  0  0  0  0
   15.5550   -4.1038   17.0414 C   0  0  0  0  0  0  0  0  0  0  0  0
   14.8001   -4.9672   16.6345 O   0  0  0  0  0  0  0  0  0  0  0  0
   14.0970   -1.9173   14.4333 C   0  0  0  0  0  0  0  0  0  0  0  0
   12.7296   -2.5589   14.4429 C   0  0  0  0  0  0  0  0  0  0  0  0
   11.5438   -1.6047   15.2296 S   0  0  0  0  0  0  0  0  0  0  0  0
   12.0440   -1.3908   16.5691 O   0  0  0  0  0  0  0  0  0  0  0  0
   10.2777   -2.2660   15.0343 O   0  0  0  0  0  0  0  0  0  0  0  0
   11.6393   -0.0724   14.2988 C   0  0  0  0  0  0  0  0  0  0  0  0
   12.9897    0.1525   13.5850 C   0  0  0  0  0  0  0  0  0  0  0  0
   15.1531    0.2987   17.5691 H   0  0  0  0  0  0  0  0  0  0  0  0
   14.4308   -1.0864   17.1146 H   0  0  0  0  0  0  0  0  0  0  0  0
   13.3349    0.6667   16.1046 H   0  0  0  0  0  0  0  0  0  0  0  0
   14.8206    1.3525   15.5557 H   0  0  0  0  0  0  0  0  0  0  0  0
   15.6348    1.0239   13.3680 H   0  0  0  0  0  0  0  0  0  0  0  0
   15.4981   -0.5016   12.5327 H   0  0  0  0  0  0  0  0  0  0  0  0
   16.3274   -2.3268   13.2770 H   0  0  0  0  0  0  0  0  0  0  0  0
   18.7809   -2.4269   14.9640 H   0  0  0  0  0  0  0  0  0  0  0  0
   18.5164   -3.4235   13.5154 H   0  0  0  0  0  0  0  0  0  0  0  0
   16.5552   -4.5496   14.6376 H   0  0  0  0  0  0  0  0  0  0  0  0
   18.0690   -4.8181   15.4916 H   0  0  0  0  0  0  0  0  0  0  0  0
   18.4119   -3.1874   17.6150 H   0  0  0  0  0  0  0  0  0  0  0  0
   17.5574   -1.7620   16.9660 H   0  0  0  0  0  0  0  0  0  0  0  0
   16.2763   -1.7235   18.9489 H   0  0  0  0  0  0  0  0  0  0  0  0
   17.0073   -3.2609   19.4648 H   0  0  0  0  0  0  0  0  0  0  0  0
   14.6428   -3.7778   18.8731 H   0  0  0  0  0  0  0  0  0  0  0  0
   14.5323   -2.3396   13.5253 H   0  0  0  0  0  0  0  0  0  0  0  0
   14.6826   -2.3107   15.2618 H   0  0  0  0  0  0  0  0  0  0  0  0
   12.7474   -3.4976   15.0011 H   0  0  0  0  0  0  0  0  0  0  0  0
   12.3721   -2.7611   13.4274 H   0  0  0  0  0  0  0  0  0  0  0  0
   11.4325    0.7353   15.0084 H   0  0  0  0  0  0  0  0  0  0  0  0
   10.8347   -0.0610   13.5628 H   0  0  0  0  0  0  0  0  0  0  0  0
   13.0961    1.2235   13.3714 H   0  0  0  0  0  0  0  0  0  0  0  0
   12.9493   -0.3421   12.6064 H   0  0  0  0  0  0  0  0  0  0  0  0
  1  2  1  0
  2  3  1  0
  3  4  1  0
  4  5  1  0
  5  6  2  0
  5  7  1  0
  7  8  1  0
  8  9  1  0
  9 10  1  0
 10 11  1  0
 11 12  1  0
 12 13  1  0
 13 14  1  0
 14 15  2  0
  3 16  1  0
 16 17  1  0
 17 18  1  0
 18 19  2  0
 18 20  2  0
 18 21  1  0
 21 22  1  0
 22  3  1  0
 14 10  1  0
  1 23  1  0
  1 24  1  0
  2 25  1  0
  2 26  1  0
  4 27  1  0
  4 28  1  0
  7 29  1  0
  8 30  1  0
  8 31  1  0
  9 32  1  0
  9 33  1  0
 11 34  1  0
 11 35  1  0
 12 36  1  0
 12 37  1  0
 13 38  1  0
 16 39  1  0
 16 40  1  0
 17 41  1  0
 17 42  1  0
 21 43  1  0
 21 44  1  0
 22 45  1  0
 22 46  1  0
M  END
>  <Energy>  (476) 
-13.417653392889662

>  <compound_id>  (476) 
62122

>  <target_id>  (476) 
1

>  <reference_id>  (476) 
98

>  <inspiration_ids>  (476) 
[97, 98]

>  <energy_score>  (476) 
-9.355376551891744

>  <distance_score>  (476) 
1.9533002847083585

>  <path>  (476) 
/opt/xchem-fragalysis-2/maxwin/BulkDock/SCRATCH/511021/C62122-P98/C62122-P98.minimised.mol

>  <scratch_subdir>  (476) 
/opt/xchem-fragalysis-2/maxwin/BulkDock/SCRATCH/511021/C62122-P98

>  <fragmenstein_runtime>  (476) 
6.6528589725494385

>  <fragmenstein_outcome>  (476) 
too moved

>  <fragmenstein_mode>  (476) 
expansion

>  <fragmenstein_error>  (476) 


$$$$
C62123-P97
     RDKit          3D

 47 48  0  0  0  0  0  0  0  0999 V2000
   12.3850   -4.1673   16.6588 N   0  0  0  0  0  0  0  0  0  0  0  0
   13.1483   -2.9353   16.5772 C   0  0  0  0  0  0  0  0  0  0  0  0
   14.5004   -3.0055   17.3035 C   0  0  0  0  0  0  0  0  0  0  0  0
   15.1581   -1.5786   17.2582 C   0  0  0  0  0  0  0  0  0  0  0  0
   15.8460   -1.1806   15.9508 C   0  0  0  0  0  0  0  0  0  0  0  0
   16.5156   -1.9169   15.3508 O   0  0  0  0  0  0  0  0  0  0  0  0
   15.4334    0.2702   15.6419 N   0  0  0  0  0  0  0  0  0  0  0  0
   15.6802    1.0783   14.4931 C   0  0  0  0  0  0  0  0  0  0  0  0
   14.4173    1.5158   13.7822 C   0  0  0  0  0  0  0  0  0  0  0  0
   13.2832    0.5158   13.4988 C   0  0  0  0  0  0  0  0  0  0  0  0
   12.1613    0.6097   14.5223 C   0  0  0  0  0  0  0  0  0  0  0  0
   11.5023   -0.6508   14.4586 N   0  0  0  0  0  0  0  0  0  0  0  0
   12.2547   -1.6062   13.8192 C   0  0  0  0  0  0  0  0  0  0  0  0
   11.9081   -2.7691   13.7086 O   0  0  0  0  0  0  0  0  0  0  0  0
   13.5639   -0.9872   13.3857 C   0  0  0  0  0  0  0  0  0  0  0  0
   14.2726   -3.3512   18.7946 C   0  0  0  0  0  0  0  0  0  0  0  0
   15.1530   -4.4585   19.3229 C   0  0  0  0  0  0  0  0  0  0  0  0
   16.8386   -4.2788   18.8237 S   0  0  0  0  0  0  0  0  0  0  0  0
   17.5403   -5.4814   19.1989 O   0  0  0  0  0  0  0  0  0  0  0  0
   17.3052   -2.9793   19.2661 O   0  0  0  0  0  0  0  0  0  0  0  0
   16.7330   -4.3044   17.0732 C   0  0  0  0  0  0  0  0  0  0  0  0
   15.3203   -4.1109   16.5887 C   0  0  0  0  0  0  0  0  0  0  0  0
   11.6545   -4.1599   15.9401 H   0  0  0  0  0  0  0  0  0  0  0  0
   11.9106   -4.2733   17.5539 H   0  0  0  0  0  0  0  0  0  0  0  0
   13.3889   -2.7711   15.5352 H   0  0  0  0  0  0  0  0  0  0  0  0
   12.5402   -2.0917   16.9102 H   0  0  0  0  0  0  0  0  0  0  0  0
   14.3907   -0.8463   17.5367 H   0  0  0  0  0  0  0  0  0  0  0  0
   15.9371   -1.4768   18.0182 H   0  0  0  0  0  0  0  0  0  0  0  0
   14.9081    0.6453   16.4209 H   0  0  0  0  0  0  0  0  0  0  0  0
   16.2587    1.9501   14.8148 H   0  0  0  0  0  0  0  0  0  0  0  0
   16.3083    0.4970   13.8095 H   0  0  0  0  0  0  0  0  0  0  0  0
   14.7347    1.9342   12.8168 H   0  0  0  0  0  0  0  0  0  0  0  0
   13.9937    2.3706   14.3275 H   0  0  0  0  0  0  0  0  0  0  0  0
   12.8383    0.8218   12.5389 H   0  0  0  0  0  0  0  0  0  0  0  0
   12.5284    0.7397   15.5453 H   0  0  0  0  0  0  0  0  0  0  0  0
   11.4489    1.4074   14.2929 H   0  0  0  0  0  0  0  0  0  0  0  0
   10.4964   -0.8125   14.4427 H   0  0  0  0  0  0  0  0  0  0  0  0
   14.3553   -1.3584   14.0208 H   0  0  0  0  0  0  0  0  0  0  0  0
   13.7871   -1.2645   12.3518 H   0  0  0  0  0  0  0  0  0  0  0  0
   13.2431   -3.6464   19.0099 H   0  0  0  0  0  0  0  0  0  0  0  0
   14.4415   -2.4628   19.4174 H   0  0  0  0  0  0  0  0  0  0  0  0
   15.1403   -4.4657   20.4180 H   0  0  0  0  0  0  0  0  0  0  0  0
   14.8109   -5.4420   18.9923 H   0  0  0  0  0  0  0  0  0  0  0  0
   17.4313   -3.5502   16.7081 H   0  0  0  0  0  0  0  0  0  0  0  0
   17.1043   -5.2747   16.7254 H   0  0  0  0  0  0  0  0  0  0  0  0
   15.3603   -3.9365   15.5117 H   0  0  0  0  0  0  0  0  0  0  0  0
   14.8010   -5.0677   16.6908 H   0  0  0  0  0  0  0  0  0  0  0  0
  1  2  1  0
  2  3  1  0
  3  4  1  0
  4  5  1  0
  5  6  2  0
  5  7  1  0
  7  8  1  0
  8  9  1  0
  9 10  1  0
 10 11  1  0
 11 12  1  0
 12 13  1  0
 13 14  2  0
 13 15  1  0
  3 16  1  0
 16 17  1  0
 17 18  1  0
 18 19  2  0
 18 20  2  0
 18 21  1  0
 21 22  1  0
 22  3  1  0
 15 10  1  0
  1 23  1  0
  1 24  1  0
  2 25  1  0
  2 26  1  0
  4 27  1  0
  4 28  1  0
  7 29  1  0
  8 30  1  0
  8 31  1  0
  9 32  1  0
  9 33  1  0
 10 34  1  0
 11 35  1  0
 11 36  1  0
 12 37  1  0
 15 38  1  0
 15 39  1  0
 16 40  1  0
 16 41  1  0
 17 42  1  0
 17 43  1  0
 21 44  1  0
 21 45  1  0
 22 46  1  0
 22 47  1  0
M  END
>  <Energy>  (477) 
16.470708325303562

>  <compound_id>  (477) 
62123

>  <target_id>  (477) 
1

>  <reference_id>  (477) 
97

>  <inspiration_ids>  (477) 
[97, 98]

>  <energy_score>  (477) 
-40.24825082869765

>  <distance_score>  (477) 
2.914245630203621

>  <path>  (477) 
/opt/xchem-fragalysis-2/maxwin/BulkDock/SCRATCH/511021/C62123-P97/C62123-P97.minimised.mol

>  <scratch_subdir>  (477) 
/opt/xchem-fragalysis-2/maxwin/BulkDock/SCRATCH/511021/C62123-P97

>  <fragmenstein_runtime>  (477) 
3.5129034519195557

>  <fragmenstein_outcome>  (477) 
too moved

>  <fragmenstein_mode>  (477) 
expansion

>  <fragmenstein_error>  (477) 


$$$$
C62123-P98
     RDKit          3D

 47 48  0  0  0  0  0  0  0  0999 V2000
   12.7027   -2.9996   17.2774 N   0  0  0  0  0  0  0  0  0  0  0  0
   13.6848   -3.5148   18.1926 C   0  0  0  0  0  0  0  0  0  0  0  0
   15.0951   -2.8901   18.0494 C   0  0  0  0  0  0  0  0  0  0  0  0
   15.2441   -1.4812   18.7341 C   0  0  0  0  0  0  0  0  0  0  0  0
   14.6962   -0.2588   17.9989 C   0  0  0  0  0  0  0  0  0  0  0  0
   13.6245    0.1338   18.2171 O   0  0  0  0  0  0  0  0  0  0  0  0
   15.7318    0.1960   16.9540 N   0  0  0  0  0  0  0  0  0  0  0  0
   15.6282    1.1670   15.8963 C   0  0  0  0  0  0  0  0  0  0  0  0
   15.2532    0.5170   14.5596 C   0  0  0  0  0  0  0  0  0  0  0  0
   13.7593    0.6062   14.1661 C   0  0  0  0  0  0  0  0  0  0  0  0
   13.5420    0.0475   12.7626 C   0  0  0  0  0  0  0  0  0  0  0  0
   13.2545   -1.3358   12.9884 N   0  0  0  0  0  0  0  0  0  0  0  0
   12.7068   -1.5511   14.2287 C   0  0  0  0  0  0  0  0  0  0  0  0
   12.2465   -2.6064   14.6265 O   0  0  0  0  0  0  0  0  0  0  0  0
   12.7925   -0.2532   14.9888 C   0  0  0  0  0  0  0  0  0  0  0  0
   15.5028   -2.7963   16.5622 C   0  0  0  0  0  0  0  0  0  0  0  0
   15.6408   -4.1257   15.8719 C   0  0  0  0  0  0  0  0  0  0  0  0
   16.9247   -5.0614   16.6264 S   0  0  0  0  0  0  0  0  0  0  0  0
   18.0991   -4.2120   16.6528 O   0  0  0  0  0  0  0  0  0  0  0  0
   16.9540   -6.3827   16.0353 O   0  0  0  0  0  0  0  0  0  0  0  0
   16.3230   -5.1912   18.2887 C   0  0  0  0  0  0  0  0  0  0  0  0
   16.0639   -3.8088   18.8600 C   0  0  0  0  0  0  0  0  0  0  0  0
   12.7200   -1.9882   17.2116 H   0  0  0  0  0  0  0  0  0  0  0  0
   12.7649   -3.3552   16.3180 H   0  0  0  0  0  0  0  0  0  0  0  0
   13.3357   -3.3854   19.2230 H   0  0  0  0  0  0  0  0  0  0  0  0
   13.7067   -4.5975   18.0409 H   0  0  0  0  0  0  0  0  0  0  0  0
   16.3033   -1.2684   18.9352 H   0  0  0  0  0  0  0  0  0  0  0  0
   14.7709   -1.5033   19.7253 H   0  0  0  0  0  0  0  0  0  0  0  0
   16.5353   -0.4193   16.9841 H   0  0  0  0  0  0  0  0  0  0  0  0
   14.8978    1.9271   16.1893 H   0  0  0  0  0  0  0  0  0  0  0  0
   16.6134    1.6373   15.8169 H   0  0  0  0  0  0  0  0  0  0  0  0
   15.6057   -0.5201   14.5162 H   0  0  0  0  0  0  0  0  0  0  0  0
   15.8123    1.0572   13.7829 H   0  0  0  0  0  0  0  0  0  0  0  0
   13.4641    1.6616   14.2038 H   0  0  0  0  0  0  0  0  0  0  0  0
   12.6660    0.5043   12.2900 H   0  0  0  0  0  0  0  0  0  0  0  0
   14.4038    0.1451   12.0974 H   0  0  0  0  0  0  0  0  0  0  0  0
   13.1820   -2.0516   12.2753 H   0  0  0  0  0  0  0  0  0  0  0  0
   11.7929    0.1934   15.0126 H   0  0  0  0  0  0  0  0  0  0  0  0
   13.1393   -0.4195   15.9947 H   0  0  0  0  0  0  0  0  0  0  0  0
   14.7973   -2.1866   15.9969 H   0  0  0  0  0  0  0  0  0  0  0  0
   16.4727   -2.2947   16.4866 H   0  0  0  0  0  0  0  0  0  0  0  0
   15.9505   -3.9710   14.8361 H   0  0  0  0  0  0  0  0  0  0  0  0
   14.7295   -4.7199   15.9221 H   0  0  0  0  0  0  0  0  0  0  0  0
   15.4366   -5.8184   18.3084 H   0  0  0  0  0  0  0  0  0  0  0  0
   17.0999   -5.7013   18.8677 H   0  0  0  0  0  0  0  0  0  0  0  0
   15.6924   -3.9201   19.8875 H   0  0  0  0  0  0  0  0  0  0  0  0
   17.0380   -3.3088   18.9519 H   0  0  0  0  0  0  0  0  0  0  0  0
  1  2  1  0
  2  3  1  0
  3  4  1  0
  4  5  1  0
  5  6  2  0
  5  7  1  0
  7  8  1  0
  8  9  1  0
  9 10  1  0
 10 11  1  0
 11 12  1  0
 12 13  1  0
 13 14  2  0
 13 15  1  0
  3 16  1  0
 16 17  1  0
 17 18  1  0
 18 19  2  0
 18 20  2  0
 18 21  1  0
 21 22  1  0
 22  3  1  0
 15 10  1  0
  1 23  1  0
  1 24  1  0
  2 25  1  0
  2 26  1  0
  4 27  1  0
  4 28  1  0
  7 29  1  0
  8 30  1  0
  8 31  1  0
  9 32  1  0
  9 33  1  0
 10 34  1  0
 11 35  1  0
 11 36  1  0
 12 37  1  0
 15 38  1  0
 15 39  1  0
 16 40  1  0
 16 41  1  0
 17 42  1  0
 17 43  1  0
 21 44  1  0
 21 45  1  0
 22 46  1  0
 22 47  1  0
M  END
>  <Energy>  (478) 
1.350430803613726

>  <compound_id>  (478) 
62123

>  <target_id>  (478) 
1

>  <reference_id>  (478) 
98

>  <inspiration_ids>  (478) 
[97, 98]

>  <energy_score>  (478) 
-55.368528350388175

>  <distance_score>  (478) 
3.2237610399753467

>  <path>  (478) 
/opt/xchem-fragalysis-2/maxwin/BulkDock/SCRATCH/511021/C62123-P98/C62123-P98.minimised.mol

>  <scratch_subdir>  (478) 
/opt/xchem-fragalysis-2/maxwin/BulkDock/SCRATCH/511021/C62123-P98

>  <fragmenstein_runtime>  (478) 
5.641448497772217

>  <fragmenstein_outcome>  (478) 
too moved

>  <fragmenstein_mode>  (478) 
expansion

>  <fragmenstein_error>  (478) 


$$$$
C62124-P97
     RDKit          3D

 49 50  0  0  0  0  0  0  0  0999 V2000
   17.5718   -3.2833   14.4744 C   0  0  0  0  0  0  0  0  0  0  0  0
   16.7270   -3.0980   15.7530 C   0  0  0  0  0  0  0  0  0  0  0  0
   16.0586   -1.7569   15.5945 N   0  0  0  0  0  0  0  0  0  0  0  0
   15.0209   -1.3309   14.7048 C   0  0  0  0  0  0  0  0  0  0  0  0
   14.3583   -1.9554   13.9242 O   0  0  0  0  0  0  0  0  0  0  0  0
   14.8972    0.1923   14.7844 C   0  0  0  0  0  0  0  0  0  0  0  0
   13.4932    0.7963   14.6492 C   0  0  0  0  0  0  0  0  0  0  0  0
   12.6796    0.3642   13.4333 C   0  0  0  0  0  0  0  0  0  0  0  0
   11.6790   -0.5178   13.9518 N   0  0  0  0  0  0  0  0  0  0  0  0
   11.5574   -0.4691   15.3106 C   0  0  0  0  0  0  0  0  0  0  0  0
   10.7180   -1.0503   15.9779 O   0  0  0  0  0  0  0  0  0  0  0  0
   12.5937    0.4800   15.8449 C   0  0  0  0  0  0  0  0  0  0  0  0
   15.4530   -2.1376   16.9699 C   0  0  0  0  0  0  0  0  0  0  0  0
   14.2888   -3.0911   17.1158 C   0  0  0  0  0  0  0  0  0  0  0  0
   14.6548   -3.6560   18.4847 C   0  0  0  0  0  0  0  0  0  0  0  0
   16.1537   -3.8918   18.6228 N   0  0  0  0  0  0  0  0  0  0  0  0
   16.4366   -4.5735   19.8400 C   0  0  0  0  0  0  0  0  0  0  0  0
   16.6911   -4.1456   20.9349 O   0  0  0  0  0  0  0  0  0  0  0  0
   16.4036   -6.0836   19.6155 C   0  0  0  0  0  0  0  0  0  0  0  0
   17.2219   -6.5903   18.4283 C   0  0  0  0  0  0  0  0  0  0  0  0
   18.7071   -6.2989   18.5672 C   0  0  0  0  0  0  0  0  0  0  0  0
   18.9327   -4.9726   18.3804 F   0  0  0  0  0  0  0  0  0  0  0  0
   16.1906   -2.4280   18.2867 C   0  0  0  0  0  0  0  0  0  0  0  0
   18.0713   -4.2573   14.4863 H   0  0  0  0  0  0  0  0  0  0  0  0
   16.9527   -3.2185   13.5752 H   0  0  0  0  0  0  0  0  0  0  0  0
   18.3397   -2.5051   14.4027 H   0  0  0  0  0  0  0  0  0  0  0  0
   17.4991   -3.1321   16.5251 H   0  0  0  0  0  0  0  0  0  0  0  0
   16.0669   -3.9688   15.7289 H   0  0  0  0  0  0  0  0  0  0  0  0
   15.3535    0.5625   15.7106 H   0  0  0  0  0  0  0  0  0  0  0  0
   15.5201    0.5792   13.9664 H   0  0  0  0  0  0  0  0  0  0  0  0
   13.6448    1.8830   14.6001 H   0  0  0  0  0  0  0  0  0  0  0  0
   12.1565    1.2180   12.9890 H   0  0  0  0  0  0  0  0  0  0  0  0
   13.2639   -0.1255   12.6517 H   0  0  0  0  0  0  0  0  0  0  0  0
   10.9838   -1.0361   13.4101 H   0  0  0  0  0  0  0  0  0  0  0  0
   13.1303    0.0288   16.6808 H   0  0  0  0  0  0  0  0  0  0  0  0
   12.0816    1.3867   16.1841 H   0  0  0  0  0  0  0  0  0  0  0  0
   15.0106   -1.1571   17.2089 H   0  0  0  0  0  0  0  0  0  0  0  0
   13.3175   -2.5877   17.1321 H   0  0  0  0  0  0  0  0  0  0  0  0
   14.2285   -3.8810   16.3647 H   0  0  0  0  0  0  0  0  0  0  0  0
   14.2473   -3.0845   19.3362 H   0  0  0  0  0  0  0  0  0  0  0  0
   14.1697   -4.6367   18.5807 H   0  0  0  0  0  0  0  0  0  0  0  0
   15.3582   -6.3865   19.5040 H   0  0  0  0  0  0  0  0  0  0  0  0
   16.7681   -6.5647   20.5320 H   0  0  0  0  0  0  0  0  0  0  0  0
   17.0814   -7.6752   18.3552 H   0  0  0  0  0  0  0  0  0  0  0  0
   16.8531   -6.1505   17.4952 H   0  0  0  0  0  0  0  0  0  0  0  0
   19.2750   -6.8372   17.8029 H   0  0  0  0  0  0  0  0  0  0  0  0
   19.0914   -6.5799   19.5521 H   0  0  0  0  0  0  0  0  0  0  0  0
   17.2499   -2.1433   18.2364 H   0  0  0  0  0  0  0  0  0  0  0  0
   15.8332   -1.8202   19.1381 H   0  0  0  0  0  0  0  0  0  0  0  0
  1  2  1  0
  2  3  1  0
  3  4  1  0
  4  5  2  0
  4  6  1  0
  6  7  1  0
  7  8  1  0
  8  9  1  0
  9 10  1  0
 10 11  2  0
 10 12  1  0
  3 13  1  0
 13 14  1  0
 14 15  1  0
 15 16  1  0
 16 17  1  0
 17 18  2  0
 17 19  1  0
 19 20  1  0
 20 21  1  0
 21 22  1  0
 16 23  1  0
 12  7  1  0
 23 13  1  0
  1 24  1  0
  1 25  1  0
  1 26  1  0
  2 27  1  0
  2 28  1  0
  6 29  1  0
  6 30  1  0
  7 31  1  0
  8 32  1  0
  8 33  1  0
  9 34  1  0
 12 35  1  0
 12 36  1  0
 13 37  1  0
 14 38  1  0
 14 39  1  0
 15 40  1  0
 15 41  1  0
 19 42  1  0
 19 43  1  0
 20 44  1  0
 20 45  1  0
 21 46  1  0
 21 47  1  0
 23 48  1  0
 23 49  1  0
M  END
>  <Energy>  (479) 
107.56537704174833

>  <compound_id>  (479) 
62124

>  <target_id>  (479) 
1

>  <reference_id>  (479) 
97

>  <inspiration_ids>  (479) 
[97, 98]

>  <energy_score>  (479) 
94.45410258824978

>  <distance_score>  (479) 
2.3068850679661717

>  <path>  (479) 
/opt/xchem-fragalysis-2/maxwin/BulkDock/SCRATCH/511021/C62124-P97/C62124-P97.minimised.mol

>  <scratch_subdir>  (479) 
/opt/xchem-fragalysis-2/maxwin/BulkDock/SCRATCH/511021/C62124-P97

>  <fragmenstein_runtime>  (479) 
3.7390573024749756

>  <fragmenstein_outcome>  (479) 
too moved

>  <fragmenstein_mode>  (479) 
expansion

>  <fragmenstein_error>  (479) 


$$$$
C62124-P98
     RDKit          3D

 49 50  0  0  0  0  0  0  0  0999 V2000
   18.0499   -1.3451   11.6736 C   0  0  0  0  0  0  0  0  0  0  0  0
   16.5671   -0.9501   11.7822 C   0  0  0  0  0  0  0  0  0  0  0  0
   16.3010   -0.8050   13.2604 N   0  0  0  0  0  0  0  0  0  0  0  0
   16.6328    0.2502   14.1679 C   0  0  0  0  0  0  0  0  0  0  0  0
   17.1269    1.3280   13.9661 O   0  0  0  0  0  0  0  0  0  0  0  0
   16.3735   -0.1945   15.6066 C   0  0  0  0  0  0  0  0  0  0  0  0
   16.3222    0.9703   16.6123 C   0  0  0  0  0  0  0  0  0  0  0  0
   15.8767    0.4599   17.9773 C   0  0  0  0  0  0  0  0  0  0  0  0
   14.4487    0.5328   17.9034 N   0  0  0  0  0  0  0  0  0  0  0  0
   14.0199    1.4376   16.9568 C   0  0  0  0  0  0  0  0  0  0  0  0
   12.8641    1.7296   16.7162 O   0  0  0  0  0  0  0  0  0  0  0  0
   15.2447    2.0203   16.3039 C   0  0  0  0  0  0  0  0  0  0  0  0
   14.8048   -0.6350   12.7399 C   0  0  0  0  0  0  0  0  0  0  0  0
   14.1451   -1.9507   12.3457 C   0  0  0  0  0  0  0  0  0  0  0  0
   12.9438   -1.9959   13.2530 C   0  0  0  0  0  0  0  0  0  0  0  0
   13.3595   -1.5399   14.6072 N   0  0  0  0  0  0  0  0  0  0  0  0
   12.3143   -1.7645   15.5490 C   0  0  0  0  0  0  0  0  0  0  0  0
   11.4096   -1.0526   15.8985 O   0  0  0  0  0  0  0  0  0  0  0  0
   12.5434   -3.1193   16.2110 C   0  0  0  0  0  0  0  0  0  0  0  0
   13.6169   -3.0580   17.2928 C   0  0  0  0  0  0  0  0  0  0  0  0
   14.9273   -3.6824   16.8538 C   0  0  0  0  0  0  0  0  0  0  0  0
   14.7640   -5.0305   16.7845 F   0  0  0  0  0  0  0  0  0  0  0  0
   13.7349   -0.3100   13.8304 C   0  0  0  0  0  0  0  0  0  0  0  0
   18.6971   -0.5852   12.1245 H   0  0  0  0  0  0  0  0  0  0  0  0
   18.2383   -2.2957   12.1843 H   0  0  0  0  0  0  0  0  0  0  0  0
   18.3366   -1.4560   10.6229 H   0  0  0  0  0  0  0  0  0  0  0  0
   16.0678   -1.7567   11.2389 H   0  0  0  0  0  0  0  0  0  0  0  0
   16.4981    0.0164   11.2610 H   0  0  0  0  0  0  0  0  0  0  0  0
   15.4921   -0.8269   15.6843 H   0  0  0  0  0  0  0  0  0  0  0  0
   17.2182   -0.8423   15.8796 H   0  0  0  0  0  0  0  0  0  0  0  0
   17.3131    1.4354   16.6669 H   0  0  0  0  0  0  0  0  0  0  0  0
   16.1885   -0.5645   18.1979 H   0  0  0  0  0  0  0  0  0  0  0  0
   16.2058    1.1233   18.7840 H   0  0  0  0  0  0  0  0  0  0  0  0
   13.8023    0.1222   18.5627 H   0  0  0  0  0  0  0  0  0  0  0  0
   15.4735    2.9694   16.8017 H   0  0  0  0  0  0  0  0  0  0  0  0
   15.0824    2.2088   15.2426 H   0  0  0  0  0  0  0  0  0  0  0  0
   14.6994    0.1973   12.0248 H   0  0  0  0  0  0  0  0  0  0  0  0
   13.8713   -1.9726   11.2911 H   0  0  0  0  0  0  0  0  0  0  0  0
   14.7988   -2.8038   12.5481 H   0  0  0  0  0  0  0  0  0  0  0  0
   12.0539   -1.4645   12.8797 H   0  0  0  0  0  0  0  0  0  0  0  0
   12.5775   -3.0248   13.3315 H   0  0  0  0  0  0  0  0  0  0  0  0
   12.7882   -3.8626   15.4582 H   0  0  0  0  0  0  0  0  0  0  0  0
   11.5907   -3.4460   16.6268 H   0  0  0  0  0  0  0  0  0  0  0  0
   13.8014   -2.0265   17.5960 H   0  0  0  0  0  0  0  0  0  0  0  0
   13.2598   -3.6080   18.1709 H   0  0  0  0  0  0  0  0  0  0  0  0
   15.7131   -3.4857   17.5887 H   0  0  0  0  0  0  0  0  0  0  0  0
   15.2611   -3.3230   15.8771 H   0  0  0  0  0  0  0  0  0  0  0  0
   14.1116    0.4032   14.5522 H   0  0  0  0  0  0  0  0  0  0  0  0
   12.8529    0.2303   13.4381 H   0  0  0  0  0  0  0  0  0  0  0  0
  1  2  1  0
  2  3  1  0
  3  4  1  0
  4  5  2  0
  4  6  1  0
  6  7  1  0
  7  8  1  0
  8  9  1  0
  9 10  1  0
 10 11  2  0
 10 12  1  0
  3 13  1  0
 13 14  1  0
 14 15  1  0
 15 16  1  0
 16 17  1  0
 17 18  2  0
 17 19  1  0
 19 20  1  0
 20 21  1  0
 21 22  1  0
 16 23  1  0
 12  7  1  0
 23 13  1  0
  1 24  1  0
  1 25  1  0
  1 26  1  0
  2 27  1  0
  2 28  1  0
  6 29  1  0
  6 30  1  0
  7 31  1  0
  8 32  1  0
  8 33  1  0
  9 34  1  0
 12 35  1  0
 12 36  1  0
 13 37  1  0
 14 38  1  0
 14 39  1  0
 15 40  1  0
 15 41  1  0
 19 42  1  0
 19 43  1  0
 20 44  1  0
 20 45  1  0
 21 46  1  0
 21 47  1  0
 23 48  1  0
 23 49  1  0
M  END
>  <Energy>  (480) 
106.03920522738927

>  <compound_id>  (480) 
62124

>  <target_id>  (480) 
1

>  <reference_id>  (480) 
98

>  <inspiration_ids>  (480) 
[97, 98]

>  <energy_score>  (480) 
92.92793077389209

>  <distance_score>  (480) 
4.076985387154943

>  <path>  (480) 
/opt/xchem-fragalysis-2/maxwin/BulkDock/SCRATCH/511021/C62124-P98/C62124-P98.minimised.mol

>  <scratch_subdir>  (480) 
/opt/xchem-fragalysis-2/maxwin/BulkDock/SCRATCH/511021/C62124-P98

>  <fragmenstein_runtime>  (480) 
4.844369173049927

>  <fragmenstein_outcome>  (480) 
too moved

>  <fragmenstein_mode>  (480) 
expansion

>  <fragmenstein_error>  (480) 


$$$$
C62125-P97
     RDKit          3D

 49 50  0  0  0  0  0  0  0  0999 V2000
   16.9168   -0.1202   14.0162 O   0  0  0  0  0  0  0  0  0  0  0  0
   16.1654    0.3189   14.7930 C   0  0  0  0  0  0  0  0  0  0  0  0
   14.8385    0.9526   14.3743 C   0  0  0  0  0  0  0  0  0  0  0  0
   13.8389   -0.1370   13.9827 C   0  0  0  0  0  0  0  0  0  0  0  0
   12.4540    0.3995   13.6548 C   0  0  0  0  0  0  0  0  0  0  0  0
   11.5843   -0.6921   13.9749 N   0  0  0  0  0  0  0  0  0  0  0  0
   12.1541   -1.6085   14.8234 C   0  0  0  0  0  0  0  0  0  0  0  0
   11.6120   -2.5816   15.3157 O   0  0  0  0  0  0  0  0  0  0  0  0
   13.5556   -1.1496   15.0941 C   0  0  0  0  0  0  0  0  0  0  0  0
   16.2020    0.3077   16.3438 N   0  0  0  0  0  0  0  0  0  0  0  0
   17.1250   -0.3309   17.2570 C   0  0  0  0  0  0  0  0  0  0  0  0
   16.3851   -1.3070   18.1751 C   0  0  0  0  0  0  0  0  0  0  0  0
   15.8673   -2.5566   17.4096 C   0  0  0  0  0  0  0  0  0  0  0  0
   14.4771   -2.9070   17.9197 C   0  0  0  0  0  0  0  0  0  0  0  0
   14.3707   -4.2900   17.4095 C   0  0  0  0  0  0  0  0  0  0  0  0
   15.7607   -4.4206   16.8165 C   0  0  0  0  0  0  0  0  0  0  0  0
   16.8362   -3.7084   17.6229 N   0  0  0  0  0  0  0  0  0  0  0  0
   17.1874   -4.4871   18.8823 C   0  0  0  0  0  0  0  0  0  0  0  0
   16.7306   -4.4291   19.9652 O   0  0  0  0  0  0  0  0  0  0  0  0
   18.3565   -5.3929   18.5010 C   0  0  0  0  0  0  0  0  0  0  0  0
   18.9426   -6.1335   19.7027 C   0  0  0  0  0  0  0  0  0  0  0  0
   19.7072   -5.2094   20.6363 C   0  0  0  0  0  0  0  0  0  0  0  0
   20.7612   -4.6745   19.9616 F   0  0  0  0  0  0  0  0  0  0  0  0
   14.4346    1.5950   15.1637 H   0  0  0  0  0  0  0  0  0  0  0  0
   15.0379    1.6097   13.5193 H   0  0  0  0  0  0  0  0  0  0  0  0
   14.2213   -0.6876   13.1112 H   0  0  0  0  0  0  0  0  0  0  0  0
   12.3441    0.6784   12.6044 H   0  0  0  0  0  0  0  0  0  0  0  0
   12.1685    1.2489   14.2840 H   0  0  0  0  0  0  0  0  0  0  0  0
   10.6363   -0.8531   13.6197 H   0  0  0  0  0  0  0  0  0  0  0  0
   13.5800   -0.6822   16.0813 H   0  0  0  0  0  0  0  0  0  0  0  0
   14.2331   -2.0006   15.0250 H   0  0  0  0  0  0  0  0  0  0  0  0
   15.4292    0.8529   16.7045 H   0  0  0  0  0  0  0  0  0  0  0  0
   17.5848    0.4652   17.8506 H   0  0  0  0  0  0  0  0  0  0  0  0
   17.9061   -0.8342   16.6791 H   0  0  0  0  0  0  0  0  0  0  0  0
   15.5447   -0.7678   18.6320 H   0  0  0  0  0  0  0  0  0  0  0  0
   17.0539   -1.6043   18.9912 H   0  0  0  0  0  0  0  0  0  0  0  0
   15.8683   -2.2740   16.3470 H   0  0  0  0  0  0  0  0  0  0  0  0
   13.6971   -2.2500   17.5419 H   0  0  0  0  0  0  0  0  0  0  0  0
   14.4298   -2.8964   19.0151 H   0  0  0  0  0  0  0  0  0  0  0  0
   14.2093   -4.9769   18.2444 H   0  0  0  0  0  0  0  0  0  0  0  0
   13.5832   -4.4343   16.6661 H   0  0  0  0  0  0  0  0  0  0  0  0
   16.0245   -5.4854   16.8187 H   0  0  0  0  0  0  0  0  0  0  0  0
   15.8209   -4.1458   15.7501 H   0  0  0  0  0  0  0  0  0  0  0  0
   19.1305   -4.7939   18.0079 H   0  0  0  0  0  0  0  0  0  0  0  0
   17.9912   -6.1348   17.7826 H   0  0  0  0  0  0  0  0  0  0  0  0
   18.1513   -6.6474   20.2599 H   0  0  0  0  0  0  0  0  0  0  0  0
   19.6336   -6.8980   19.3285 H   0  0  0  0  0  0  0  0  0  0  0  0
   19.0968   -4.3880   21.0188 H   0  0  0  0  0  0  0  0  0  0  0  0
   20.1085   -5.7689   21.4862 H   0  0  0  0  0  0  0  0  0  0  0  0
  1  2  2  0
  2  3  1  0
  3  4  1  0
  4  5  1  0
  5  6  1  0
  6  7  1  0
  7  8  2  0
  7  9  1  0
  2 10  1  0
 10 11  1  0
 11 12  1  0
 12 13  1  0
 13 14  1  0
 14 15  1  0
 15 16  1  0
 16 17  1  0
 17 18  1  0
 18 19  2  0
 18 20  1  0
 20 21  1  0
 21 22  1  0
 22 23  1  0
  9  4  1  0
 17 13  1  0
  3 24  1  0
  3 25  1  0
  4 26  1  0
  5 27  1  0
  5 28  1  0
  6 29  1  0
  9 30  1  0
  9 31  1  0
 10 32  1  0
 11 33  1  0
 11 34  1  0
 12 35  1  0
 12 36  1  0
 13 37  1  0
 14 38  1  0
 14 39  1  0
 15 40  1  0
 15 41  1  0
 16 42  1  0
 16 43  1  0
 20 44  1  0
 20 45  1  0
 21 46  1  0
 21 47  1  0
 22 48  1  0
 22 49  1  0
M  END
>  <Energy>  (481) 
34.463439226351703

>  <compound_id>  (481) 
62125

>  <target_id>  (481) 
1

>  <reference_id>  (481) 
97

>  <inspiration_ids>  (481) 
[97, 98]

>  <energy_score>  (481) 
36.025795466862746

>  <distance_score>  (481) 
2.874258907352232

>  <path>  (481) 
/opt/xchem-fragalysis-2/maxwin/BulkDock/SCRATCH/511021/C62125-P97/C62125-P97.minimised.mol

>  <scratch_subdir>  (481) 
/opt/xchem-fragalysis-2/maxwin/BulkDock/SCRATCH/511021/C62125-P97

>  <fragmenstein_runtime>  (481) 
2.2774224281311035

>  <fragmenstein_outcome>  (481) 
too moved

>  <fragmenstein_mode>  (481) 
expansion

>  <fragmenstein_error>  (481) 


$$$$
C62125-P98
     RDKit          3D

 49 50  0  0  0  0  0  0  0  0999 V2000
   16.1033    0.1432   15.7366 O   0  0  0  0  0  0  0  0  0  0  0  0
   15.1527    0.2646   16.4020 C   0  0  0  0  0  0  0  0  0  0  0  0
   13.7833    0.6049   15.8110 C   0  0  0  0  0  0  0  0  0  0  0  0
   13.6565    0.0341   14.3818 C   0  0  0  0  0  0  0  0  0  0  0  0
   12.3084    0.3620   13.7541 C   0  0  0  0  0  0  0  0  0  0  0  0
   11.4493   -0.6780   14.2396 N   0  0  0  0  0  0  0  0  0  0  0  0
   12.1656   -1.8123   14.5666 C   0  0  0  0  0  0  0  0  0  0  0  0
   11.6795   -2.8723   14.9159 O   0  0  0  0  0  0  0  0  0  0  0  0
   13.6309   -1.5004   14.3852 C   0  0  0  0  0  0  0  0  0  0  0  0
   14.9622    0.0639   17.9282 N   0  0  0  0  0  0  0  0  0  0  0  0
   15.8796   -0.4189   18.9303 C   0  0  0  0  0  0  0  0  0  0  0  0
   15.7083   -1.9072   19.2623 C   0  0  0  0  0  0  0  0  0  0  0  0
   15.5122   -2.8152   18.0170 C   0  0  0  0  0  0  0  0  0  0  0  0
   14.0171   -3.0434   17.7924 C   0  0  0  0  0  0  0  0  0  0  0  0
   14.0715   -4.2642   16.9597 C   0  0  0  0  0  0  0  0  0  0  0  0
   15.5744   -4.4307   16.9081 C   0  0  0  0  0  0  0  0  0  0  0  0
   16.2319   -4.1411   18.2453 N   0  0  0  0  0  0  0  0  0  0  0  0
   15.9611   -5.2559   19.2459 C   0  0  0  0  0  0  0  0  0  0  0  0
   15.0857   -5.3868   20.0204 O   0  0  0  0  0  0  0  0  0  0  0  0
   17.1245   -6.2341   19.1070 C   0  0  0  0  0  0  0  0  0  0  0  0
   17.0102   -7.3937   20.0911 C   0  0  0  0  0  0  0  0  0  0  0  0
   18.1577   -8.3714   19.9336 C   0  0  0  0  0  0  0  0  0  0  0  0
   18.0282   -9.3529   20.8658 F   0  0  0  0  0  0  0  0  0  0  0  0
   12.9769    0.2182   16.4416 H   0  0  0  0  0  0  0  0  0  0  0  0
   13.6990    1.6974   15.7893 H   0  0  0  0  0  0  0  0  0  0  0  0
   14.4759    0.4148   13.7616 H   0  0  0  0  0  0  0  0  0  0  0  0
   12.3474    0.2877   12.6628 H   0  0  0  0  0  0  0  0  0  0  0  0
   11.9082    1.3387   14.0379 H   0  0  0  0  0  0  0  0  0  0  0  0
   10.4930   -0.8387   13.9087 H   0  0  0  0  0  0  0  0  0  0  0  0
   14.2439   -1.9452   15.1657 H   0  0  0  0  0  0  0  0  0  0  0  0
   13.9424   -1.8955   13.4119 H   0  0  0  0  0  0  0  0  0  0  0  0
   13.9848    0.1743   18.1644 H   0  0  0  0  0  0  0  0  0  0  0  0
   15.7468    0.1887   19.8305 H   0  0  0  0  0  0  0  0  0  0  0  0
   16.8915   -0.2497   18.5468 H   0  0  0  0  0  0  0  0  0  0  0  0
   14.8650   -2.0242   19.9545 H   0  0  0  0  0  0  0  0  0  0  0  0
   16.5984   -2.2202   19.8233 H   0  0  0  0  0  0  0  0  0  0  0  0
   16.0091   -2.2843   17.1879 H   0  0  0  0  0  0  0  0  0  0  0  0
   13.5186   -2.2039   17.3074 H   0  0  0  0  0  0  0  0  0  0  0  0
   13.4904   -3.2666   18.7263 H   0  0  0  0  0  0  0  0  0  0  0  0
   13.5712   -5.0922   17.4654 H   0  0  0  0  0  0  0  0  0  0  0  0
   13.6285   -4.1419   15.9760 H   0  0  0  0  0  0  0  0  0  0  0  0
   15.7958   -5.4762   16.6713 H   0  0  0  0  0  0  0  0  0  0  0  0
   16.0615   -3.8850   16.0814 H   0  0  0  0  0  0  0  0  0  0  0  0
   18.0571   -5.6861   19.2853 H   0  0  0  0  0  0  0  0  0  0  0  0
   17.1440   -6.6243   18.0841 H   0  0  0  0  0  0  0  0  0  0  0  0
   16.9921   -7.0197   21.1220 H   0  0  0  0  0  0  0  0  0  0  0  0
   16.0614   -7.9258   19.9497 H   0  0  0  0  0  0  0  0  0  0  0  0
   18.1530   -8.8416   18.9459 H   0  0  0  0  0  0  0  0  0  0  0  0
   19.1250   -7.8858   20.0918 H   0  0  0  0  0  0  0  0  0  0  0  0
  1  2  2  0
  2  3  1  0
  3  4  1  0
  4  5  1  0
  5  6  1  0
  6  7  1  0
  7  8  2  0
  7  9  1  0
  2 10  1  0
 10 11  1  0
 11 12  1  0
 12 13  1  0
 13 14  1  0
 14 15  1  0
 15 16  1  0
 16 17  1  0
 17 18  1  0
 18 19  2  0
 18 20  1  0
 20 21  1  0
 21 22  1  0
 22 23  1  0
  9  4  1  0
 17 13  1  0
  3 24  1  0
  3 25  1  0
  4 26  1  0
  5 27  1  0
  5 28  1  0
  6 29  1  0
  9 30  1  0
  9 31  1  0
 10 32  1  0
 11 33  1  0
 11 34  1  0
 12 35  1  0
 12 36  1  0
 13 37  1  0
 14 38  1  0
 14 39  1  0
 15 40  1  0
 15 41  1  0
 16 42  1  0
 16 43  1  0
 20 44  1  0
 20 45  1  0
 21 46  1  0
 21 47  1  0
 22 48  1  0
 22 49  1  0
M  END
>  <Energy>  (482) 
35.51464855127211

>  <compound_id>  (482) 
62125

>  <target_id>  (482) 
1

>  <reference_id>  (482) 
98

>  <inspiration_ids>  (482) 
[97, 98]

>  <energy_score>  (482) 
37.07700479178175

>  <distance_score>  (482) 
3.4173094741065544

>  <path>  (482) 
/opt/xchem-fragalysis-2/maxwin/BulkDock/SCRATCH/511021/C62125-P98/C62125-P98.minimised.mol

>  <scratch_subdir>  (482) 
/opt/xchem-fragalysis-2/maxwin/BulkDock/SCRATCH/511021/C62125-P98

>  <fragmenstein_runtime>  (482) 
2.608480215072632

>  <fragmenstein_outcome>  (482) 
too moved

>  <fragmenstein_mode>  (482) 
expansion

>  <fragmenstein_error>  (482) 


$$$$
C62126-P97
     RDKit          3D

 38 40  0  0  0  0  0  0  0  0999 V2000
   18.3330   -1.6793   13.0305 C   0  0  0  0  0  0  0  0  0  0  0  0
   17.0406   -2.3537   13.4022 C   0  0  0  0  0  0  0  0  0  0  0  0
   15.8345   -1.6931   12.9671 N   0  0  0  0  0  0  0  0  0  0  0  0
   15.5082   -0.1838   12.8258 C   0  0  0  0  0  0  0  0  0  0  0  0
   16.1894    0.7533   12.9652 O   0  0  0  0  0  0  0  0  0  0  0  0
   14.0220   -0.1029   12.5555 C   0  0  0  0  0  0  0  0  0  0  0  0
   13.3479   -0.3651   13.9225 C   0  0  0  0  0  0  0  0  0  0  0  0
   11.8978    0.0610   14.0204 C   0  0  0  0  0  0  0  0  0  0  0  0
   11.3229   -0.8231   15.1240 C   0  0  0  0  0  0  0  0  0  0  0  0
   12.1914   -2.0457   15.0873 C   0  0  0  0  0  0  0  0  0  0  0  0
   12.0388   -3.0681   15.7338 O   0  0  0  0  0  0  0  0  0  0  0  0
   13.2728   -1.7662   14.2681 N   0  0  0  0  0  0  0  0  0  0  0  0
   16.7998   -2.4363   14.9021 C   0  0  0  0  0  0  0  0  0  0  0  0
   16.6394   -1.2433   15.6322 C   0  0  0  0  0  0  0  0  0  0  0  0
   15.8818   -1.2120   16.8007 C   0  0  0  0  0  0  0  0  0  0  0  0
   15.3583   -2.4022   17.3081 C   0  0  0  0  0  0  0  0  0  0  0  0
   14.5337   -2.4964   18.4065 N   0  0  0  0  0  0  0  0  0  0  0  0
   14.2326   -3.7547   18.6187 C   0  0  0  0  0  0  0  0  0  0  0  0
   15.0067   -4.8749   17.6042 S   0  0  0  0  0  0  0  0  0  0  0  0
   15.6792   -3.6030   16.6791 C   0  0  0  0  0  0  0  0  0  0  0  0
   16.4123   -3.6527   15.4827 C   0  0  0  0  0  0  0  0  0  0  0  0
   18.4315   -1.6129   11.9413 H   0  0  0  0  0  0  0  0  0  0  0  0
   19.1910   -2.2436   13.4124 H   0  0  0  0  0  0  0  0  0  0  0  0
   18.4161   -0.6603   13.4215 H   0  0  0  0  0  0  0  0  0  0  0  0
   17.0415   -3.3490   12.9626 H   0  0  0  0  0  0  0  0  0  0  0  0
   15.0254   -2.2423   12.6936 H   0  0  0  0  0  0  0  0  0  0  0  0
   13.7451   -0.8301   11.7904 H   0  0  0  0  0  0  0  0  0  0  0  0
   13.7899    0.9017   12.1869 H   0  0  0  0  0  0  0  0  0  0  0  0
   13.9085    0.1266   14.7291 H   0  0  0  0  0  0  0  0  0  0  0  0
   11.3664   -0.1228   13.0844 H   0  0  0  0  0  0  0  0  0  0  0  0
   11.7897    1.1263   14.2477 H   0  0  0  0  0  0  0  0  0  0  0  0
   10.2725   -1.0693   14.9645 H   0  0  0  0  0  0  0  0  0  0  0  0
   11.4472   -0.3434   16.0965 H   0  0  0  0  0  0  0  0  0  0  0  0
   14.1003   -2.3047   14.4985 H   0  0  0  0  0  0  0  0  0  0  0  0
   16.9751   -0.2922   15.2206 H   0  0  0  0  0  0  0  0  0  0  0  0
   15.6791   -0.2726   17.3043 H   0  0  0  0  0  0  0  0  0  0  0  0
   13.5595   -4.0591   19.4112 H   0  0  0  0  0  0  0  0  0  0  0  0
   16.5533   -4.5975   14.9673 H   0  0  0  0  0  0  0  0  0  0  0  0
  1  2  1  0
  2  3  1  0
  3  4  1  0
  4  5  2  0
  4  6  1  0
  6  7  1  0
  7  8  1  0
  8  9  1  0
  9 10  1  0
 10 11  2  0
 10 12  1  0
  2 13  1  0
 13 14  2  0
 14 15  1  0
 15 16  2  0
 16 17  1  0
 17 18  2  0
 18 19  1  0
 19 20  1  0
 20 21  2  0
 12  7  1  0
 21 13  1  0
 20 16  1  0
  1 22  1  0
  1 23  1  0
  1 24  1  0
  2 25  1  0
  3 26  1  0
  6 27  1  0
  6 28  1  0
  7 29  1  0
  8 30  1  0
  8 31  1  0
  9 32  1  0
  9 33  1  0
 12 34  1  0
 14 35  1  0
 15 36  1  0
 18 37  1  0
 21 38  1  0
M  END
>  <Energy>  (483) 
7.0069860146612237

>  <compound_id>  (483) 
62126

>  <target_id>  (483) 
1

>  <reference_id>  (483) 
97

>  <inspiration_ids>  (483) 
[97, 98]

>  <energy_score>  (483) 
-63.06207446336998

>  <distance_score>  (483) 
2.092829625415067

>  <path>  (483) 
/opt/xchem-fragalysis-2/maxwin/BulkDock/SCRATCH/511021/C62126-P97/C62126-P97.minimised.mol

>  <scratch_subdir>  (483) 
/opt/xchem-fragalysis-2/maxwin/BulkDock/SCRATCH/511021/C62126-P97

>  <fragmenstein_runtime>  (483) 
2.6625864505767822

>  <fragmenstein_outcome>  (483) 
too moved

>  <fragmenstein_mode>  (483) 
expansion

>  <fragmenstein_error>  (483) 


$$$$
C62126-P98
     RDKit          3D

 38 40  0  0  0  0  0  0  0  0999 V2000
   18.5459   -1.8128   13.0890 C   0  0  0  0  0  0  0  0  0  0  0  0
   17.3725   -2.6698   13.4752 C   0  0  0  0  0  0  0  0  0  0  0  0
   16.1085   -2.2755   12.9137 N   0  0  0  0  0  0  0  0  0  0  0  0
   15.5428   -0.8647   12.5957 C   0  0  0  0  0  0  0  0  0  0  0  0
   16.0461    0.1857   12.6684 O   0  0  0  0  0  0  0  0  0  0  0  0
   14.0873   -1.0790   12.2452 C   0  0  0  0  0  0  0  0  0  0  0  0
   13.4468   -1.3816   13.6151 C   0  0  0  0  0  0  0  0  0  0  0  0
   12.8940   -0.1965   14.3854 C   0  0  0  0  0  0  0  0  0  0  0  0
   12.0647   -0.8780   15.4745 C   0  0  0  0  0  0  0  0  0  0  0  0
   11.7548   -2.2291   14.8795 C   0  0  0  0  0  0  0  0  0  0  0  0
   11.1848   -3.1461   15.4432 O   0  0  0  0  0  0  0  0  0  0  0  0
   12.3356   -2.2820   13.6166 N   0  0  0  0  0  0  0  0  0  0  0  0
   17.0009   -2.6385   14.9560 C   0  0  0  0  0  0  0  0  0  0  0  0
   16.7612   -1.4018   15.5827 C   0  0  0  0  0  0  0  0  0  0  0  0
   15.8847   -1.3034   16.6654 C   0  0  0  0  0  0  0  0  0  0  0  0
   15.2863   -2.4587   17.1778 C   0  0  0  0  0  0  0  0  0  0  0  0
   14.3374   -2.4834   18.1765 N   0  0  0  0  0  0  0  0  0  0  0  0
   13.9957   -3.7243   18.4287 C   0  0  0  0  0  0  0  0  0  0  0  0
   14.8224   -4.9112   17.5381 S   0  0  0  0  0  0  0  0  0  0  0  0
   15.6465   -3.6965   16.6505 C   0  0  0  0  0  0  0  0  0  0  0  0
   16.5189   -3.8185   15.5557 C   0  0  0  0  0  0  0  0  0  0  0  0
   18.7224   -1.8722   12.0092 H   0  0  0  0  0  0  0  0  0  0  0  0
   19.4563   -2.1498   13.5970 H   0  0  0  0  0  0  0  0  0  0  0  0
   18.4146   -0.7539   13.3295 H   0  0  0  0  0  0  0  0  0  0  0  0
   17.5856   -3.6961   13.1690 H   0  0  0  0  0  0  0  0  0  0  0  0
   15.4245   -2.9804   12.6605 H   0  0  0  0  0  0  0  0  0  0  0  0
   13.9890   -1.9065   11.5376 H   0  0  0  0  0  0  0  0  0  0  0  0
   13.6801   -0.1707   11.7936 H   0  0  0  0  0  0  0  0  0  0  0  0
   14.1706   -1.8696   14.2761 H   0  0  0  0  0  0  0  0  0  0  0  0
   12.2397    0.4136   13.7502 H   0  0  0  0  0  0  0  0  0  0  0  0
   13.6723    0.4517   14.7982 H   0  0  0  0  0  0  0  0  0  0  0  0
   11.1465   -0.3279   15.6930 H   0  0  0  0  0  0  0  0  0  0  0  0
   12.6489   -1.0150   16.3874 H   0  0  0  0  0  0  0  0  0  0  0  0
   12.3480   -3.2058   13.2011 H   0  0  0  0  0  0  0  0  0  0  0  0
   17.1213   -0.4743   15.1394 H   0  0  0  0  0  0  0  0  0  0  0  0
   15.6342   -0.3340   17.0844 H   0  0  0  0  0  0  0  0  0  0  0  0
   13.2506   -3.9777   19.1735 H   0  0  0  0  0  0  0  0  0  0  0  0
   16.6854   -4.7899   15.0990 H   0  0  0  0  0  0  0  0  0  0  0  0
  1  2  1  0
  2  3  1  0
  3  4  1  0
  4  5  2  0
  4  6  1  0
  6  7  1  0
  7  8  1  0
  8  9  1  0
  9 10  1  0
 10 11  2  0
 10 12  1  0
  2 13  1  0
 13 14  2  0
 14 15  1  0
 15 16  2  0
 16 17  1  0
 17 18  2  0
 18 19  1  0
 19 20  1  0
 20 21  2  0
 12  7  1  0
 21 13  1  0
 20 16  1  0
  1 22  1  0
  1 23  1  0
  1 24  1  0
  2 25  1  0
  3 26  1  0
  6 27  1  0
  6 28  1  0
  7 29  1  0
  8 30  1  0
  8 31  1  0
  9 32  1  0
  9 33  1  0
 12 34  1  0
 14 35  1  0
 15 36  1  0
 18 37  1  0
 21 38  1  0
M  END
>  <Energy>  (484) 
12.703077829791736

>  <compound_id>  (484) 
62126

>  <target_id>  (484) 
1

>  <reference_id>  (484) 
98

>  <inspiration_ids>  (484) 
[97, 98]

>  <energy_score>  (484) 
-57.36598264823943

>  <distance_score>  (484) 
2.0994582180131607

>  <path>  (484) 
/opt/xchem-fragalysis-2/maxwin/BulkDock/SCRATCH/511021/C62126-P98/C62126-P98.minimised.mol

>  <scratch_subdir>  (484) 
/opt/xchem-fragalysis-2/maxwin/BulkDock/SCRATCH/511021/C62126-P98

>  <fragmenstein_runtime>  (484) 
2.6114206314086914

>  <fragmenstein_outcome>  (484) 
too moved

>  <fragmenstein_mode>  (484) 
expansion

>  <fragmenstein_error>  (484) 


$$$$
C62127-P97
     RDKit          3D

 54 55  0  0  0  0  0  0  0  0999 V2000
   13.4446   -4.4762   23.8682 C   0  0  0  0  0  0  0  0  0  0  0  0
   14.3990   -4.4469   22.6840 C   0  0  0  0  0  0  0  0  0  0  0  0
   15.7061   -3.7284   23.0435 C   0  0  0  0  0  0  0  0  0  0  0  0
   16.6699   -3.7667   21.9312 N   0  0  0  0  0  0  0  0  0  0  0  0
   18.0311   -3.5505   22.4332 C   0  0  0  0  0  0  0  0  0  0  0  0
   16.3387   -2.7419   20.9104 C   0  0  0  0  0  0  0  0  0  0  0  0
   17.0790   -3.0267   19.5881 C   0  0  0  0  0  0  0  0  0  0  0  0
   18.1010   -2.5137   19.2898 O   0  0  0  0  0  0  0  0  0  0  0  0
   16.2338   -4.0567   18.8379 N   0  0  0  0  0  0  0  0  0  0  0  0
   16.5007   -4.7975   17.5464 C   0  0  0  0  0  0  0  0  0  0  0  0
   15.9721   -3.6952   16.6731 C   0  0  0  0  0  0  0  0  0  0  0  0
   17.0122   -2.7293   16.0916 C   0  0  0  0  0  0  0  0  0  0  0  0
   17.8158   -3.4111   14.9892 C   0  0  0  0  0  0  0  0  0  0  0  0
   16.2873   -1.6273   15.4986 N   0  0  0  0  0  0  0  0  0  0  0  0
   15.7021   -0.3460   16.1426 C   0  0  0  0  0  0  0  0  0  0  0  0
   15.7813    0.0546   17.2349 O   0  0  0  0  0  0  0  0  0  0  0  0
   14.8432    0.3345   15.0801 C   0  0  0  0  0  0  0  0  0  0  0  0
   13.7310   -0.5816   14.5768 C   0  0  0  0  0  0  0  0  0  0  0  0
   12.5364    0.1431   13.9768 C   0  0  0  0  0  0  0  0  0  0  0  0
   11.4810   -0.8092   14.1397 N   0  0  0  0  0  0  0  0  0  0  0  0
   11.7587   -1.7655   15.0858 C   0  0  0  0  0  0  0  0  0  0  0  0
   11.0426   -2.6892   15.4185 O   0  0  0  0  0  0  0  0  0  0  0  0
   13.0925   -1.4446   15.6725 C   0  0  0  0  0  0  0  0  0  0  0  0
   15.1874   -3.3669   17.9068 C   0  0  0  0  0  0  0  0  0  0  0  0
   12.5346   -5.0233   23.6058 H   0  0  0  0  0  0  0  0  0  0  0  0
   13.9004   -4.9745   24.7299 H   0  0  0  0  0  0  0  0  0  0  0  0
   13.1597   -3.4623   24.1668 H   0  0  0  0  0  0  0  0  0  0  0  0
   14.6152   -5.4773   22.3764 H   0  0  0  0  0  0  0  0  0  0  0  0
   13.8954   -3.9597   21.8429 H   0  0  0  0  0  0  0  0  0  0  0  0
   16.1295   -4.2511   23.9115 H   0  0  0  0  0  0  0  0  0  0  0  0
   15.5097   -2.6971   23.3638 H   0  0  0  0  0  0  0  0  0  0  0  0
   18.7706   -3.6354   21.6307 H   0  0  0  0  0  0  0  0  0  0  0  0
   18.2946   -4.3206   23.1673 H   0  0  0  0  0  0  0  0  0  0  0  0
   18.1445   -2.5701   22.9099 H   0  0  0  0  0  0  0  0  0  0  0  0
   15.2657   -2.7258   20.6907 H   0  0  0  0  0  0  0  0  0  0  0  0
   16.5968   -1.7299   21.2471 H   0  0  0  0  0  0  0  0  0  0  0  0
   15.9463   -5.7405   17.5233 H   0  0  0  0  0  0  0  0  0  0  0  0
   17.5641   -5.0354   17.4395 H   0  0  0  0  0  0  0  0  0  0  0  0
   15.3310   -4.0822   15.8712 H   0  0  0  0  0  0  0  0  0  0  0  0
   17.6712   -2.3191   16.8584 H   0  0  0  0  0  0  0  0  0  0  0  0
   18.5214   -2.7080   14.5328 H   0  0  0  0  0  0  0  0  0  0  0  0
   18.3893   -4.2574   15.3791 H   0  0  0  0  0  0  0  0  0  0  0  0
   17.1655   -3.7866   14.1938 H   0  0  0  0  0  0  0  0  0  0  0  0
   15.9557   -1.7088   14.5460 H   0  0  0  0  0  0  0  0  0  0  0  0
   14.4192    1.2383   15.5348 H   0  0  0  0  0  0  0  0  0  0  0  0
   15.4833    0.6645   14.2544 H   0  0  0  0  0  0  0  0  0  0  0  0
   14.1267   -1.2551   13.8032 H   0  0  0  0  0  0  0  0  0  0  0  0
   12.2624    1.0494   14.5258 H   0  0  0  0  0  0  0  0  0  0  0  0
   12.6707    0.3799   12.9187 H   0  0  0  0  0  0  0  0  0  0  0  0
   10.6169   -0.9009   13.5965 H   0  0  0  0  0  0  0  0  0  0  0  0
   12.9493   -0.9053   16.6133 H   0  0  0  0  0  0  0  0  0  0  0  0
   13.6408   -2.3713   15.8344 H   0  0  0  0  0  0  0  0  0  0  0  0
   15.0536   -2.3082   18.1428 H   0  0  0  0  0  0  0  0  0  0  0  0
   14.2152   -3.8681   18.0093 H   0  0  0  0  0  0  0  0  0  0  0  0
  1  2  1  0
  2  3  1  0
  3  4  1  0
  4  5  1  0
  4  6  1  0
  6  7  1  0
  7  8  2  0
  7  9  1  0
  9 10  1  0
 10 11  1  0
 11 12  1  0
 12 13  1  0
 12 14  1  0
 14 15  1  0
 15 16  2  0
 15 17  1  0
 17 18  1  0
 18 19  1  0
 19 20  1  0
 20 21  1  0
 21 22  2  0
 21 23  1  0
 11 24  1  0
 24  9  1  0
 23 18  1  0
  1 25  1  0
  1 26  1  0
  1 27  1  0
  2 28  1  0
  2 29  1  0
  3 30  1  0
  3 31  1  0
  5 32  1  0
  5 33  1  0
  5 34  1  0
  6 35  1  0
  6 36  1  0
 10 37  1  0
 10 38  1  0
 11 39  1  0
 12 40  1  0
 13 41  1  0
 13 42  1  0
 13 43  1  0
 14 44  1  0
 17 45  1  0
 17 46  1  0
 18 47  1  0
 19 48  1  0
 19 49  1  0
 20 50  1  0
 23 51  1  0
 23 52  1  0
 24 53  1  0
 24 54  1  0
M  END
>  <Energy>  (485) 
46.8857565888758

>  <compound_id>  (485) 
62127

>  <target_id>  (485) 
1

>  <reference_id>  (485) 
97

>  <inspiration_ids>  (485) 
[97, 98]

>  <energy_score>  (485) 
-12.154940999489042

>  <distance_score>  (485) 
2.682184504708267

>  <path>  (485) 
/opt/xchem-fragalysis-2/maxwin/BulkDock/SCRATCH/511021/C62127-P97/C62127-P97.minimised.mol

>  <scratch_subdir>  (485) 
/opt/xchem-fragalysis-2/maxwin/BulkDock/SCRATCH/511021/C62127-P97

>  <fragmenstein_runtime>  (485) 
3.644846200942993

>  <fragmenstein_outcome>  (485) 
too moved

>  <fragmenstein_mode>  (485) 
expansion

>  <fragmenstein_error>  (485) 


$$$$
C62127-P98
     RDKit          3D

 54 55  0  0  0  0  0  0  0  0999 V2000
   14.8893   -7.2469   21.8107 C   0  0  0  0  0  0  0  0  0  0  0  0
   16.2807   -7.2024   21.1948 C   0  0  0  0  0  0  0  0  0  0  0  0
   16.3370   -7.9843   19.8761 C   0  0  0  0  0  0  0  0  0  0  0  0
   17.6875   -8.0502   19.3086 N   0  0  0  0  0  0  0  0  0  0  0  0
   17.7714   -9.0828   18.2733 C   0  0  0  0  0  0  0  0  0  0  0  0
   18.2037   -6.7531   18.8252 C   0  0  0  0  0  0  0  0  0  0  0  0
   17.5264   -6.2095   17.5458 C   0  0  0  0  0  0  0  0  0  0  0  0
   17.9129   -6.4828   16.4631 O   0  0  0  0  0  0  0  0  0  0  0  0
   16.4236   -5.2479   17.9880 N   0  0  0  0  0  0  0  0  0  0  0  0
   15.4269   -4.4331   17.1674 C   0  0  0  0  0  0  0  0  0  0  0  0
   16.2266   -3.1756   17.1183 C   0  0  0  0  0  0  0  0  0  0  0  0
   17.1074   -2.6622   15.9673 C   0  0  0  0  0  0  0  0  0  0  0  0
   17.6167   -3.7086   15.0013 C   0  0  0  0  0  0  0  0  0  0  0  0
   16.3288   -1.6868   15.2431 N   0  0  0  0  0  0  0  0  0  0  0  0
   15.8861   -0.2574   15.6413 C   0  0  0  0  0  0  0  0  0  0  0  0
   16.1469    0.3796   16.5827 O   0  0  0  0  0  0  0  0  0  0  0  0
   14.9415    0.2484   14.5578 C   0  0  0  0  0  0  0  0  0  0  0  0
   13.7618   -0.6820   14.3061 C   0  0  0  0  0  0  0  0  0  0  0  0
   12.5599    0.0095   13.6825 C   0  0  0  0  0  0  0  0  0  0  0  0
   11.4803   -0.8536   14.0465 N   0  0  0  0  0  0  0  0  0  0  0  0
   11.7896   -1.6840   15.0971 C   0  0  0  0  0  0  0  0  0  0  0  0
   11.0612   -2.5268   15.5835 O   0  0  0  0  0  0  0  0  0  0  0  0
   13.1689   -1.3333   15.5631 C   0  0  0  0  0  0  0  0  0  0  0  0
   16.9855   -3.8053   18.2303 C   0  0  0  0  0  0  0  0  0  0  0  0
   14.1555   -6.7683   21.1551 H   0  0  0  0  0  0  0  0  0  0  0  0
   14.5703   -8.2780   21.9926 H   0  0  0  0  0  0  0  0  0  0  0  0
   14.8824   -6.7155   22.7676 H   0  0  0  0  0  0  0  0  0  0  0  0
   16.5509   -6.1526   21.0417 H   0  0  0  0  0  0  0  0  0  0  0  0
   16.9993   -7.6246   21.9075 H   0  0  0  0  0  0  0  0  0  0  0  0
   15.6344   -7.5583   19.1574 H   0  0  0  0  0  0  0  0  0  0  0  0
   15.9882   -9.0038   20.0880 H   0  0  0  0  0  0  0  0  0  0  0  0
   18.7859   -9.1409   17.8634 H   0  0  0  0  0  0  0  0  0  0  0  0
   17.0711   -8.9136   17.4490 H   0  0  0  0  0  0  0  0  0  0  0  0
   17.5548  -10.0678   18.7020 H   0  0  0  0  0  0  0  0  0  0  0  0
   18.1796   -5.9970   19.6162 H   0  0  0  0  0  0  0  0  0  0  0  0
   19.2712   -6.8633   18.5917 H   0  0  0  0  0  0  0  0  0  0  0  0
   15.2248   -4.9062   16.2030 H   0  0  0  0  0  0  0  0  0  0  0  0
   14.4745   -4.3587   17.7087 H   0  0  0  0  0  0  0  0  0  0  0  0
   15.6429   -2.3319   17.5184 H   0  0  0  0  0  0  0  0  0  0  0  0
   17.9512   -2.1010   16.3862 H   0  0  0  0  0  0  0  0  0  0  0  0
   18.3902   -4.3183   15.4722 H   0  0  0  0  0  0  0  0  0  0  0  0
   18.0697   -3.2441   14.1180 H   0  0  0  0  0  0  0  0  0  0  0  0
   16.8184   -4.3672   14.6550 H   0  0  0  0  0  0  0  0  0  0  0  0
   15.8492   -1.9660   14.3967 H   0  0  0  0  0  0  0  0  0  0  0  0
   15.5129    0.4084   13.6364 H   0  0  0  0  0  0  0  0  0  0  0  0
   14.5828    1.2338   14.8811 H   0  0  0  0  0  0  0  0  0  0  0  0
   14.0657   -1.4856   13.6197 H   0  0  0  0  0  0  0  0  0  0  0  0
   12.3607    0.9978   14.1087 H   0  0  0  0  0  0  0  0  0  0  0  0
   12.6324    0.0867   12.5956 H   0  0  0  0  0  0  0  0  0  0  0  0
   10.6003   -0.9985   13.5410 H   0  0  0  0  0  0  0  0  0  0  0  0
   13.0977   -0.6425   16.4089 H   0  0  0  0  0  0  0  0  0  0  0  0
   13.7018   -2.2418   15.8491 H   0  0  0  0  0  0  0  0  0  0  0  0
   18.0789   -3.7741   18.1585 H   0  0  0  0  0  0  0  0  0  0  0  0
   16.7027   -3.4780   19.2398 H   0  0  0  0  0  0  0  0  0  0  0  0
  1  2  1  0
  2  3  1  0
  3  4  1  0
  4  5  1  0
  4  6  1  0
  6  7  1  0
  7  8  2  0
  7  9  1  0
  9 10  1  0
 10 11  1  0
 11 12  1  0
 12 13  1  0
 12 14  1  0
 14 15  1  0
 15 16  2  0
 15 17  1  0
 17 18  1  0
 18 19  1  0
 19 20  1  0
 20 21  1  0
 21 22  2  0
 21 23  1  0
 11 24  1  0
 24  9  1  0
 23 18  1  0
  1 25  1  0
  1 26  1  0
  1 27  1  0
  2 28  1  0
  2 29  1  0
  3 30  1  0
  3 31  1  0
  5 32  1  0
  5 33  1  0
  5 34  1  0
  6 35  1  0
  6 36  1  0
 10 37  1  0
 10 38  1  0
 11 39  1  0
 12 40  1  0
 13 41  1  0
 13 42  1  0
 13 43  1  0
 14 44  1  0
 17 45  1  0
 17 46  1  0
 18 47  1  0
 19 48  1  0
 19 49  1  0
 20 50  1  0
 23 51  1  0
 23 52  1  0
 24 53  1  0
 24 54  1  0
M  END
>  <Energy>  (486) 
53.164713046278095

>  <compound_id>  (486) 
62127

>  <target_id>  (486) 
1

>  <reference_id>  (486) 
98

>  <inspiration_ids>  (486) 
[97, 98]

>  <energy_score>  (486) 
-5.87598454208765

>  <distance_score>  (486) 
2.5325169151734563

>  <path>  (486) 
/opt/xchem-fragalysis-2/maxwin/BulkDock/SCRATCH/511021/C62127-P98/C62127-P98.minimised.mol

>  <scratch_subdir>  (486) 
/opt/xchem-fragalysis-2/maxwin/BulkDock/SCRATCH/511021/C62127-P98

>  <fragmenstein_runtime>  (486) 
4.465430021286011

>  <fragmenstein_outcome>  (486) 
too moved

>  <fragmenstein_mode>  (486) 
expansion

>  <fragmenstein_error>  (486) 


$$$$
C62129-P97
     RDKit          3D

 41 42  0  0  0  0  0  0  0  0999 V2000
   15.7578   -2.0466   12.8737 O   0  0  0  0  0  0  0  0  0  0  0  0
   16.3006   -1.7149   13.8524 C   0  0  0  0  0  0  0  0  0  0  0  0
   17.1033   -2.6752   14.7161 C   0  0  0  0  0  0  0  0  0  0  0  0
   16.3628   -3.2056   15.9036 C   0  0  0  0  0  0  0  0  0  0  0  0
   15.4843   -2.5762   16.7643 C   0  0  0  0  0  0  0  0  0  0  0  0
   14.9378   -3.6565   17.9670 S   0  0  0  0  0  0  0  0  0  0  0  0
   16.1576   -4.7446   17.4599 C   0  0  0  0  0  0  0  0  0  0  0  0
   16.5829   -5.9052   18.2746 C   0  0  0  0  0  0  0  0  0  0  0  0
   17.6796   -5.5654   19.2792 C   0  0  0  0  0  0  0  0  0  0  0  0
   18.9777   -5.1172   18.6451 C   0  0  0  0  0  0  0  0  0  0  0  0
   18.8852   -3.8965   18.0818 F   0  0  0  0  0  0  0  0  0  0  0  0
   19.4144   -5.9932   17.7190 F   0  0  0  0  0  0  0  0  0  0  0  0
   19.9372   -5.0323   19.6003 F   0  0  0  0  0  0  0  0  0  0  0  0
   16.7252   -4.4636   16.3175 N   0  0  0  0  0  0  0  0  0  0  0  0
   16.4083   -0.3155   14.5184 N   0  0  0  0  0  0  0  0  0  0  0  0
   15.7951    0.9306   14.1677 C   0  0  0  0  0  0  0  0  0  0  0  0
   14.3728    1.0672   14.7035 C   0  0  0  0  0  0  0  0  0  0  0  0
   13.3851    0.0122   14.1724 C   0  0  0  0  0  0  0  0  0  0  0  0
   11.9715    0.5528   13.9969 C   0  0  0  0  0  0  0  0  0  0  0  0
   11.1139   -0.5486   14.3033 N   0  0  0  0  0  0  0  0  0  0  0  0
   11.7652   -1.5897   14.9141 C   0  0  0  0  0  0  0  0  0  0  0  0
   11.2708   -2.6412   15.2772 O   0  0  0  0  0  0  0  0  0  0  0  0
   13.1759   -1.1626   15.1328 C   0  0  0  0  0  0  0  0  0  0  0  0
   17.4121   -3.5082   14.0725 H   0  0  0  0  0  0  0  0  0  0  0  0
   18.0321   -2.1948   15.0454 H   0  0  0  0  0  0  0  0  0  0  0  0
   15.1553   -1.5528   16.7589 H   0  0  0  0  0  0  0  0  0  0  0  0
   16.9271   -6.7103   17.6139 H   0  0  0  0  0  0  0  0  0  0  0  0
   15.7290   -6.3073   18.8319 H   0  0  0  0  0  0  0  0  0  0  0  0
   17.3339   -4.7895   19.9729 H   0  0  0  0  0  0  0  0  0  0  0  0
   17.8794   -6.4591   19.8826 H   0  0  0  0  0  0  0  0  0  0  0  0
   17.0267   -0.3684   15.3213 H   0  0  0  0  0  0  0  0  0  0  0  0
   16.4268    1.7327   14.5617 H   0  0  0  0  0  0  0  0  0  0  0  0
   15.7883    1.0008   13.0749 H   0  0  0  0  0  0  0  0  0  0  0  0
   14.3899    1.0592   15.8001 H   0  0  0  0  0  0  0  0  0  0  0  0
   14.0213    2.0642   14.4080 H   0  0  0  0  0  0  0  0  0  0  0  0
   13.7138   -0.3675   13.1967 H   0  0  0  0  0  0  0  0  0  0  0  0
   11.7788    0.8956   12.9763 H   0  0  0  0  0  0  0  0  0  0  0  0
   11.7337    1.3604   14.6968 H   0  0  0  0  0  0  0  0  0  0  0  0
   10.2212   -0.7729   13.8517 H   0  0  0  0  0  0  0  0  0  0  0  0
   13.2600   -0.8662   16.1812 H   0  0  0  0  0  0  0  0  0  0  0  0
   13.8216   -1.9989   14.8767 H   0  0  0  0  0  0  0  0  0  0  0  0
  1  2  2  0
  2  3  1  0
  3  4  1  0
  4  5  2  0
  5  6  1  0
  6  7  1  0
  7  8  1  0
  8  9  1  0
  9 10  1  0
 10 11  1  0
 10 12  1  0
 10 13  1  0
  7 14  2  0
  2 15  1  0
 15 16  1  0
 16 17  1  0
 17 18  1  0
 18 19  1  0
 19 20  1  0
 20 21  1  0
 21 22  2  0
 21 23  1  0
 14  4  1  0
 23 18  1  0
  3 24  1  0
  3 25  1  0
  5 26  1  0
  8 27  1  0
  8 28  1  0
  9 29  1  0
  9 30  1  0
 15 31  1  0
 16 32  1  0
 16 33  1  0
 17 34  1  0
 17 35  1  0
 18 36  1  0
 19 37  1  0
 19 38  1  0
 20 39  1  0
 23 40  1  0
 23 41  1  0
M  END
>  <Energy>  (487) 
-0.36942460604969618

>  <compound_id>  (487) 
62129

>  <target_id>  (487) 
1

>  <reference_id>  (487) 
97

>  <inspiration_ids>  (487) 
[97, 98]

>  <energy_score>  (487) 
-39.90617468415364

>  <distance_score>  (487) 
2.2828383461249846

>  <path>  (487) 
/opt/xchem-fragalysis-2/maxwin/BulkDock/SCRATCH/511021/C62129-P97/C62129-P97.minimised.mol

>  <scratch_subdir>  (487) 
/opt/xchem-fragalysis-2/maxwin/BulkDock/SCRATCH/511021/C62129-P97

>  <fragmenstein_runtime>  (487) 
2.142674684524536

>  <fragmenstein_outcome>  (487) 
too moved

>  <fragmenstein_mode>  (487) 
expansion

>  <fragmenstein_error>  (487) 


$$$$
C62129-P98
     RDKit          3D

 41 42  0  0  0  0  0  0  0  0999 V2000
   16.4654   -1.0582   13.0858 O   0  0  0  0  0  0  0  0  0  0  0  0
   16.5725   -1.3349   14.2173 C   0  0  0  0  0  0  0  0  0  0  0  0
   16.8977   -2.7547   14.6575 C   0  0  0  0  0  0  0  0  0  0  0  0
   16.0351   -3.2979   15.7590 C   0  0  0  0  0  0  0  0  0  0  0  0
   14.6604   -3.2914   15.9094 C   0  0  0  0  0  0  0  0  0  0  0  0
   14.2060   -4.0681   17.3590 S   0  0  0  0  0  0  0  0  0  0  0  0
   15.8637   -4.3688   17.6722 C   0  0  0  0  0  0  0  0  0  0  0  0
   16.3154   -5.1629   18.8392 C   0  0  0  0  0  0  0  0  0  0  0  0
   17.5278   -4.5520   19.5383 C   0  0  0  0  0  0  0  0  0  0  0  0
   17.2033   -3.2472   20.2281 C   0  0  0  0  0  0  0  0  0  0  0  0
   16.8236   -2.2788   19.3708 F   0  0  0  0  0  0  0  0  0  0  0  0
   16.2133   -3.4155   21.1315 F   0  0  0  0  0  0  0  0  0  0  0  0
   18.2870   -2.7911   20.8976 F   0  0  0  0  0  0  0  0  0  0  0  0
   16.7082   -3.8843   16.8002 N   0  0  0  0  0  0  0  0  0  0  0  0
   16.3382   -0.4737   15.4920 N   0  0  0  0  0  0  0  0  0  0  0  0
   15.8360    0.8648   15.6338 C   0  0  0  0  0  0  0  0  0  0  0  0
   14.6942    1.1651   14.6583 C   0  0  0  0  0  0  0  0  0  0  0  0
   13.6545    0.0530   14.5248 C   0  0  0  0  0  0  0  0  0  0  0  0
   12.5142    0.3478   13.5610 C   0  0  0  0  0  0  0  0  0  0  0  0
   11.5167   -0.5978   13.9725 N   0  0  0  0  0  0  0  0  0  0  0  0
   11.7538   -1.0940   15.2358 C   0  0  0  0  0  0  0  0  0  0  0  0
   11.1207   -1.9736   15.7886 O   0  0  0  0  0  0  0  0  0  0  0  0
   12.9122   -0.3150   15.8068 C   0  0  0  0  0  0  0  0  0  0  0  0
   16.8054   -3.4087   13.7861 H   0  0  0  0  0  0  0  0  0  0  0  0
   17.9526   -2.7658   14.9571 H   0  0  0  0  0  0  0  0  0  0  0  0
   13.9092   -2.8978   15.2451 H   0  0  0  0  0  0  0  0  0  0  0  0
   16.5863   -6.1653   18.4844 H   0  0  0  0  0  0  0  0  0  0  0  0
   15.5042   -5.3004   19.5644 H   0  0  0  0  0  0  0  0  0  0  0  0
   18.3509   -4.3975   18.8310 H   0  0  0  0  0  0  0  0  0  0  0  0
   17.8898   -5.2624   20.2910 H   0  0  0  0  0  0  0  0  0  0  0  0
   16.4439   -1.0558   16.3200 H   0  0  0  0  0  0  0  0  0  0  0  0
   16.6672    1.5570   15.4683 H   0  0  0  0  0  0  0  0  0  0  0  0
   15.4972    0.9773   16.6686 H   0  0  0  0  0  0  0  0  0  0  0  0
   14.2114    2.1029   14.9591 H   0  0  0  0  0  0  0  0  0  0  0  0
   15.1224    1.3503   13.6646 H   0  0  0  0  0  0  0  0  0  0  0  0
   14.1298   -0.8540   14.1408 H   0  0  0  0  0  0  0  0  0  0  0  0
   12.7873    0.1754   12.5175 H   0  0  0  0  0  0  0  0  0  0  0  0
   12.1033    1.3555   13.6775 H   0  0  0  0  0  0  0  0  0  0  0  0
   10.7595   -0.9917   13.4062 H   0  0  0  0  0  0  0  0  0  0  0  0
   12.5289    0.5705   16.3224 H   0  0  0  0  0  0  0  0  0  0  0  0
   13.5076   -0.9114   16.4959 H   0  0  0  0  0  0  0  0  0  0  0  0
  1  2  2  0
  2  3  1  0
  3  4  1  0
  4  5  2  0
  5  6  1  0
  6  7  1  0
  7  8  1  0
  8  9  1  0
  9 10  1  0
 10 11  1  0
 10 12  1  0
 10 13  1  0
  7 14  2  0
  2 15  1  0
 15 16  1  0
 16 17  1  0
 17 18  1  0
 18 19  1  0
 19 20  1  0
 20 21  1  0
 21 22  2  0
 21 23  1  0
 14  4  1  0
 23 18  1  0
  3 24  1  0
  3 25  1  0
  5 26  1  0
  8 27  1  0
  8 28  1  0
  9 29  1  0
  9 30  1  0
 15 31  1  0
 16 32  1  0
 16 33  1  0
 17 34  1  0
 17 35  1  0
 18 36  1  0
 19 37  1  0
 19 38  1  0
 20 39  1  0
 23 40  1  0
 23 41  1  0
M  END
>  <Energy>  (488) 
-8.564321382854212

>  <compound_id>  (488) 
62129

>  <target_id>  (488) 
1

>  <reference_id>  (488) 
98

>  <inspiration_ids>  (488) 
[97, 98]

>  <energy_score>  (488) 
-48.10107146095696

>  <distance_score>  (488) 
2.2451174511876295

>  <path>  (488) 
/opt/xchem-fragalysis-2/maxwin/BulkDock/SCRATCH/511021/C62129-P98/C62129-P98.minimised.mol

>  <scratch_subdir>  (488) 
/opt/xchem-fragalysis-2/maxwin/BulkDock/SCRATCH/511021/C62129-P98

>  <fragmenstein_runtime>  (488) 
2.2232553958892822

>  <fragmenstein_outcome>  (488) 
too moved

>  <fragmenstein_mode>  (488) 
expansion

>  <fragmenstein_error>  (488) 


$$$$
C62130-P97
     RDKit          3D

 35 36  0  0  0  0  0  0  0  0999 V2000
   16.7925    0.1338   19.2586 O   0  0  0  0  0  0  0  0  0  0  0  0
   16.7618   -0.6487   18.3924 C   0  0  0  0  0  0  0  0  0  0  0  0
   17.0722   -2.1477   18.6166 C   0  0  0  0  0  0  0  0  0  0  0  0
   16.0416   -3.0210   18.0454 N   0  0  0  0  0  0  0  0  0  0  0  0
   14.7003   -2.8971   18.5929 C   0  0  0  0  0  0  0  0  0  0  0  0
   13.8112   -4.0557   18.2133 C   0  0  0  0  0  0  0  0  0  0  0  0
   13.8857   -4.1913   16.7209 C   0  0  0  0  0  0  0  0  0  0  0  0
   15.2586   -4.3676   16.3307 N   0  0  0  0  0  0  0  0  0  0  0  0
   16.3072   -3.7255   16.9003 C   0  0  0  0  0  0  0  0  0  0  0  0
   17.4131   -3.7861   16.3760 O   0  0  0  0  0  0  0  0  0  0  0  0
   16.4171   -0.4722   16.8909 N   0  0  0  0  0  0  0  0  0  0  0  0
   16.1327    0.7173   16.1304 C   0  0  0  0  0  0  0  0  0  0  0  0
   15.5254    0.4367   14.7576 C   0  0  0  0  0  0  0  0  0  0  0  0
   14.2185   -0.3117   14.7793 C   0  0  0  0  0  0  0  0  0  0  0  0
   13.2109   -0.3225   15.7234 C   0  0  0  0  0  0  0  0  0  0  0  0
   12.1167   -1.1546   15.3474 C   0  0  0  0  0  0  0  0  0  0  0  0
   12.3369   -1.7882   14.1490 C   0  0  0  0  0  0  0  0  0  0  0  0
   13.8079   -1.2940   13.4364 S   0  0  0  0  0  0  0  0  0  0  0  0
   18.0587   -2.3590   18.1921 H   0  0  0  0  0  0  0  0  0  0  0  0
   17.1153   -2.3412   19.6941 H   0  0  0  0  0  0  0  0  0  0  0  0
   14.2847   -1.9559   18.2187 H   0  0  0  0  0  0  0  0  0  0  0  0
   14.7704   -2.8286   19.6842 H   0  0  0  0  0  0  0  0  0  0  0  0
   14.1668   -4.9681   18.7056 H   0  0  0  0  0  0  0  0  0  0  0  0
   12.7919   -3.8810   18.5399 H   0  0  0  0  0  0  0  0  0  0  0  0
   13.3069   -5.0528   16.3927 H   0  0  0  0  0  0  0  0  0  0  0  0
   13.5057   -3.3055   16.2181 H   0  0  0  0  0  0  0  0  0  0  0  0
   15.4960   -4.8113   15.4514 H   0  0  0  0  0  0  0  0  0  0  0  0
   16.5701   -1.3514   16.4012 H   0  0  0  0  0  0  0  0  0  0  0  0
   17.0808    1.2536   16.0154 H   0  0  0  0  0  0  0  0  0  0  0  0
   15.4815    1.3519   16.7411 H   0  0  0  0  0  0  0  0  0  0  0  0
   15.3665    1.3919   14.2415 H   0  0  0  0  0  0  0  0  0  0  0  0
   16.2605   -0.1257   14.1667 H   0  0  0  0  0  0  0  0  0  0  0  0
   13.2520    0.2526   16.6398 H   0  0  0  0  0  0  0  0  0  0  0  0
   11.2158   -1.2980   15.9240 H   0  0  0  0  0  0  0  0  0  0  0  0
   11.6887   -2.4850   13.6359 H   0  0  0  0  0  0  0  0  0  0  0  0
  1  2  2  0
  2  3  1  0
  3  4  1  0
  4  5  1  0
  5  6  1  0
  6  7  1  0
  7  8  1  0
  8  9  1  0
  9 10  2  0
  2 11  1  0
 11 12  1  0
 12 13  1  0
 13 14  1  0
 14 15  2  0
 15 16  1  0
 16 17  2  0
 17 18  1  0
  9  4  1  0
 18 14  1  0
  3 19  1  0
  3 20  1  0
  5 21  1  0
  5 22  1  0
  6 23  1  0
  6 24  1  0
  7 25  1  0
  7 26  1  0
  8 27  1  0
 11 28  1  0
 12 29  1  0
 12 30  1  0
 13 31  1  0
 13 32  1  0
 15 33  1  0
 16 34  1  0
 17 35  1  0
M  END
>  <Energy>  (489) 
-59.960353875656651

>  <compound_id>  (489) 
62130

>  <target_id>  (489) 
1

>  <reference_id>  (489) 
97

>  <inspiration_ids>  (489) 
[97, 98]

>  <energy_score>  (489) 
-31.01946156362812

>  <distance_score>  (489) 
2.8453864829692748

>  <path>  (489) 
/opt/xchem-fragalysis-2/maxwin/BulkDock/SCRATCH/511021/C62130-P97/C62130-P97.minimised.mol

>  <scratch_subdir>  (489) 
/opt/xchem-fragalysis-2/maxwin/BulkDock/SCRATCH/511021/C62130-P97

>  <fragmenstein_runtime>  (489) 
3.4108636379241943

>  <fragmenstein_outcome>  (489) 
too moved

>  <fragmenstein_mode>  (489) 
expansion

>  <fragmenstein_error>  (489) 


$$$$
C62130-P98
     RDKit          3D

 35 36  0  0  0  0  0  0  0  0999 V2000
   19.0832   -2.6236   14.4105 O   0  0  0  0  0  0  0  0  0  0  0  0
   17.9964   -2.7249   14.8260 C   0  0  0  0  0  0  0  0  0  0  0  0
   17.5294   -3.9448   15.6731 C   0  0  0  0  0  0  0  0  0  0  0  0
   16.2444   -3.7445   16.3666 N   0  0  0  0  0  0  0  0  0  0  0  0
   15.3488   -4.8649   16.4631 C   0  0  0  0  0  0  0  0  0  0  0  0
   13.9324   -4.3792   16.6797 C   0  0  0  0  0  0  0  0  0  0  0  0
   13.9283   -3.6022   17.9648 C   0  0  0  0  0  0  0  0  0  0  0  0
   15.0479   -2.6936   18.0570 N   0  0  0  0  0  0  0  0  0  0  0  0
   16.2564   -2.8998   17.4541 C   0  0  0  0  0  0  0  0  0  0  0  0
   17.2651   -2.3250   17.8335 O   0  0  0  0  0  0  0  0  0  0  0  0
   16.7673   -1.7963   14.6593 N   0  0  0  0  0  0  0  0  0  0  0  0
   16.5966   -0.6038   13.8709 C   0  0  0  0  0  0  0  0  0  0  0  0
   15.5166    0.3237   14.4476 C   0  0  0  0  0  0  0  0  0  0  0  0
   14.1852   -0.3612   14.6077 C   0  0  0  0  0  0  0  0  0  0  0  0
   13.4991   -0.6247   15.7756 C   0  0  0  0  0  0  0  0  0  0  0  0
   12.3186   -1.3843   15.5475 C   0  0  0  0  0  0  0  0  0  0  0  0
   12.1496   -1.6943   14.2216 C   0  0  0  0  0  0  0  0  0  0  0  0
   13.3394   -0.9548   13.2458 S   0  0  0  0  0  0  0  0  0  0  0  0
   17.4335   -4.7824   14.9741 H   0  0  0  0  0  0  0  0  0  0  0  0
   18.3031   -4.1790   16.4125 H   0  0  0  0  0  0  0  0  0  0  0  0
   15.6936   -5.4803   17.3030 H   0  0  0  0  0  0  0  0  0  0  0  0
   15.4334   -5.4567   15.5568 H   0  0  0  0  0  0  0  0  0  0  0  0
   13.6378   -3.7291   15.8551 H   0  0  0  0  0  0  0  0  0  0  0  0
   13.2148   -5.1994   16.7251 H   0  0  0  0  0  0  0  0  0  0  0  0
   13.0075   -3.0345   18.0582 H   0  0  0  0  0  0  0  0  0  0  0  0
   13.9958   -4.2789   18.8243 H   0  0  0  0  0  0  0  0  0  0  0  0
   15.1319   -2.1248   18.8912 H   0  0  0  0  0  0  0  0  0  0  0  0
   15.9531   -2.2304   15.0871 H   0  0  0  0  0  0  0  0  0  0  0  0
   17.5614   -0.0882   13.8242 H   0  0  0  0  0  0  0  0  0  0  0  0
   16.3512   -0.9245   12.8531 H   0  0  0  0  0  0  0  0  0  0  0  0
   15.4038    1.2016   13.8003 H   0  0  0  0  0  0  0  0  0  0  0  0
   15.8483    0.6919   15.4269 H   0  0  0  0  0  0  0  0  0  0  0  0
   13.8541   -0.3174   16.7522 H   0  0  0  0  0  0  0  0  0  0  0  0
   11.6514   -1.7350   16.3169 H   0  0  0  0  0  0  0  0  0  0  0  0
   11.3694   -2.2913   13.7742 H   0  0  0  0  0  0  0  0  0  0  0  0
  1  2  2  0
  2  3  1  0
  3  4  1  0
  4  5  1  0
  5  6  1  0
  6  7  1  0
  7  8  1  0
  8  9  1  0
  9 10  2  0
  2 11  1  0
 11 12  1  0
 12 13  1  0
 13 14  1  0
 14 15  2  0
 15 16  1  0
 16 17  2  0
 17 18  1  0
  9  4  1  0
 18 14  1  0
  3 19  1  0
  3 20  1  0
  5 21  1  0
  5 22  1  0
  6 23  1  0
  6 24  1  0
  7 25  1  0
  7 26  1  0
  8 27  1  0
 11 28  1  0
 12 29  1  0
 12 30  1  0
 13 31  1  0
 13 32  1  0
 15 33  1  0
 16 34  1  0
 17 35  1  0
M  END
>  <Energy>  (490) 
-55.751428750169048

>  <compound_id>  (490) 
62130

>  <target_id>  (490) 
1

>  <reference_id>  (490) 
98

>  <inspiration_ids>  (490) 
[97, 98]

>  <energy_score>  (490) 
-26.810536438139682

>  <distance_score>  (490) 
1.9196046062006826

>  <path>  (490) 
/opt/xchem-fragalysis-2/maxwin/BulkDock/SCRATCH/511021/C62130-P98/C62130-P98.minimised.mol

>  <scratch_subdir>  (490) 
/opt/xchem-fragalysis-2/maxwin/BulkDock/SCRATCH/511021/C62130-P98

>  <fragmenstein_runtime>  (490) 
3.1448333263397217

>  <fragmenstein_outcome>  (490) 
too moved

>  <fragmenstein_mode>  (490) 
expansion

>  <fragmenstein_error>  (490) 


$$$$
C62131-P97
     RDKit          3D

 33 34  0  0  0  0  0  0  0  0999 V2000
   17.6879   -2.2730   14.5965 O   0  0  0  0  0  0  0  0  0  0  0  0
   17.2674   -1.7426   15.5448 C   0  0  0  0  0  0  0  0  0  0  0  0
   17.1003   -2.4568   16.8751 C   0  0  0  0  0  0  0  0  0  0  0  0
   15.6246   -2.6734   17.2009 C   0  0  0  0  0  0  0  0  0  0  0  0
   14.8367   -3.3906   16.1180 C   0  0  0  0  0  0  0  0  0  0  0  0
   13.6653   -3.9962   16.8766 C   0  0  0  0  0  0  0  0  0  0  0  0
   14.3632   -4.3981   18.1375 C   0  0  0  0  0  0  0  0  0  0  0  0
   14.0629   -5.3262   18.8618 O   0  0  0  0  0  0  0  0  0  0  0  0
   15.4361   -3.5529   18.3204 N   0  0  0  0  0  0  0  0  0  0  0  0
   16.6931   -0.3183   15.7243 N   0  0  0  0  0  0  0  0  0  0  0  0
   16.4307    0.7121   14.7550 C   0  0  0  0  0  0  0  0  0  0  0  0
   15.0018    1.2437   14.8587 C   0  0  0  0  0  0  0  0  0  0  0  0
   13.9317    0.1897   14.7698 C   0  0  0  0  0  0  0  0  0  0  0  0
   13.0678   -0.2312   15.7620 C   0  0  0  0  0  0  0  0  0  0  0  0
   12.1507   -1.2205   15.3082 C   0  0  0  0  0  0  0  0  0  0  0  0
   12.3795   -1.5680   13.9997 C   0  0  0  0  0  0  0  0  0  0  0  0
   13.6280   -0.6269   13.3007 S   0  0  0  0  0  0  0  0  0  0  0  0
   17.6297   -3.4163   16.8146 H   0  0  0  0  0  0  0  0  0  0  0  0
   17.5973   -1.8826   17.6658 H   0  0  0  0  0  0  0  0  0  0  0  0
   15.1382   -1.7275   17.4645 H   0  0  0  0  0  0  0  0  0  0  0  0
   15.4510   -4.1977   15.6965 H   0  0  0  0  0  0  0  0  0  0  0  0
   14.5463   -2.7373   15.3020 H   0  0  0  0  0  0  0  0  0  0  0  0
   13.2360   -4.8606   16.3758 H   0  0  0  0  0  0  0  0  0  0  0  0
   12.8882   -3.2694   17.1191 H   0  0  0  0  0  0  0  0  0  0  0  0
   16.0375   -3.6502   19.1304 H   0  0  0  0  0  0  0  0  0  0  0  0
   16.4938   -0.1549   16.7034 H   0  0  0  0  0  0  0  0  0  0  0  0
   16.6302    0.2991   13.7609 H   0  0  0  0  0  0  0  0  0  0  0  0
   17.1460    1.5209   14.9348 H   0  0  0  0  0  0  0  0  0  0  0  0
   14.8387    1.9971   14.0779 H   0  0  0  0  0  0  0  0  0  0  0  0
   14.8915    1.7690   15.8170 H   0  0  0  0  0  0  0  0  0  0  0  0
   13.0882    0.1706   16.7656 H   0  0  0  0  0  0  0  0  0  0  0  0
   11.3795   -1.6839   15.9064 H   0  0  0  0  0  0  0  0  0  0  0  0
   11.8571   -2.3087   13.4107 H   0  0  0  0  0  0  0  0  0  0  0  0
  1  2  2  0
  2  3  1  0
  3  4  1  0
  4  5  1  0
  5  6  1  0
  6  7  1  0
  7  8  2  0
  7  9  1  0
  2 10  1  0
 10 11  1  0
 11 12  1  0
 12 13  1  0
 13 14  2  0
 14 15  1  0
 15 16  2  0
 16 17  1  0
  9  4  1  0
 17 13  1  0
  3 18  1  0
  3 19  1  0
  4 20  1  0
  5 21  1  0
  5 22  1  0
  6 23  1  0
  6 24  1  0
  9 25  1  0
 10 26  1  0
 11 27  1  0
 11 28  1  0
 12 29  1  0
 12 30  1  0
 14 31  1  0
 15 32  1  0
 16 33  1  0
M  END
>  <Energy>  (491) 
-5.3528287956551264

>  <compound_id>  (491) 
62131

>  <target_id>  (491) 
1

>  <reference_id>  (491) 
97

>  <inspiration_ids>  (491) 
[97, 98]

>  <energy_score>  (491) 
-25.802966148265654

>  <distance_score>  (491) 
1.8395740139543926

>  <path>  (491) 
/opt/xchem-fragalysis-2/maxwin/BulkDock/SCRATCH/511021/C62131-P97/C62131-P97.minimised.mol

>  <scratch_subdir>  (491) 
/opt/xchem-fragalysis-2/maxwin/BulkDock/SCRATCH/511021/C62131-P97

>  <fragmenstein_runtime>  (491) 
1.9161148071289062

>  <fragmenstein_outcome>  (491) 
too moved

>  <fragmenstein_mode>  (491) 
expansion

>  <fragmenstein_error>  (491) 


$$$$
C62131-P98
     RDKit          3D

 33 34  0  0  0  0  0  0  0  0999 V2000
   16.8586    0.2996   17.0474 O   0  0  0  0  0  0  0  0  0  0  0  0
   16.8139   -0.5995   16.3065 C   0  0  0  0  0  0  0  0  0  0  0  0
   16.9485   -2.0404   16.7602 C   0  0  0  0  0  0  0  0  0  0  0  0
   15.6482   -2.5161   17.3946 C   0  0  0  0  0  0  0  0  0  0  0  0
   14.4266   -2.5201   16.4895 C   0  0  0  0  0  0  0  0  0  0  0  0
   13.5183   -3.5966   17.0646 C   0  0  0  0  0  0  0  0  0  0  0  0
   14.5029   -4.4998   17.7393 C   0  0  0  0  0  0  0  0  0  0  0  0
   14.2774   -5.5936   18.2170 O   0  0  0  0  0  0  0  0  0  0  0  0
   15.7345   -3.8938   17.7742 N   0  0  0  0  0  0  0  0  0  0  0  0
   16.5297   -0.6323   14.7855 N   0  0  0  0  0  0  0  0  0  0  0  0
   16.1489    0.4224   13.8830 C   0  0  0  0  0  0  0  0  0  0  0  0
   14.7665    0.9831   14.2195 C   0  0  0  0  0  0  0  0  0  0  0  0
   13.6461   -0.0259   14.1677 C   0  0  0  0  0  0  0  0  0  0  0  0
   13.5596   -1.2411   13.5154 C   0  0  0  0  0  0  0  0  0  0  0  0
   12.3498   -1.9353   13.8058 C   0  0  0  0  0  0  0  0  0  0  0  0
   11.5288   -1.2167   14.6405 C   0  0  0  0  0  0  0  0  0  0  0  0
   12.1868    0.3160   15.0071 S   0  0  0  0  0  0  0  0  0  0  0  0
   17.7667   -2.0848   17.4903 H   0  0  0  0  0  0  0  0  0  0  0  0
   17.2566   -2.6977   15.9391 H   0  0  0  0  0  0  0  0  0  0  0  0
   15.4329   -1.9392   18.3035 H   0  0  0  0  0  0  0  0  0  0  0  0
   14.7128   -2.8003   15.4716 H   0  0  0  0  0  0  0  0  0  0  0  0
   13.9434   -1.5451   16.4859 H   0  0  0  0  0  0  0  0  0  0  0  0
   12.9564   -4.1217   16.2909 H   0  0  0  0  0  0  0  0  0  0  0  0
   12.8424   -3.1934   17.8173 H   0  0  0  0  0  0  0  0  0  0  0  0
   16.4238   -4.2759   18.4123 H   0  0  0  0  0  0  0  0  0  0  0  0
   16.4866   -1.5948   14.4696 H   0  0  0  0  0  0  0  0  0  0  0  0
   16.1912    0.0266   12.8635 H   0  0  0  0  0  0  0  0  0  0  0  0
   16.8941    1.2186   13.9791 H   0  0  0  0  0  0  0  0  0  0  0  0
   14.5361    1.7917   13.5146 H   0  0  0  0  0  0  0  0  0  0  0  0
   14.8031    1.4327   15.2205 H   0  0  0  0  0  0  0  0  0  0  0  0
   14.3353   -1.6421   12.8745 H   0  0  0  0  0  0  0  0  0  0  0  0
   12.0786   -2.9052   13.4070 H   0  0  0  0  0  0  0  0  0  0  0  0
   10.5417   -1.4915   14.9845 H   0  0  0  0  0  0  0  0  0  0  0  0
  1  2  2  0
  2  3  1  0
  3  4  1  0
  4  5  1  0
  5  6  1  0
  6  7  1  0
  7  8  2  0
  7  9  1  0
  2 10  1  0
 10 11  1  0
 11 12  1  0
 12 13  1  0
 13 14  2  0
 14 15  1  0
 15 16  2  0
 16 17  1  0
  9  4  1  0
 17 13  1  0
  3 18  1  0
  3 19  1  0
  4 20  1  0
  5 21  1  0
  5 22  1  0
  6 23  1  0
  6 24  1  0
  9 25  1  0
 10 26  1  0
 11 27  1  0
 11 28  1  0
 12 29  1  0
 12 30  1  0
 14 31  1  0
 15 32  1  0
 16 33  1  0
M  END
>  <Energy>  (492) 
-7.8141791621231125

>  <compound_id>  (492) 
62131

>  <target_id>  (492) 
1

>  <reference_id>  (492) 
98

>  <inspiration_ids>  (492) 
[97, 98]

>  <energy_score>  (492) 
-28.264316514733565

>  <distance_score>  (492) 
2.3302311511292406

>  <path>  (492) 
/opt/xchem-fragalysis-2/maxwin/BulkDock/SCRATCH/511021/C62131-P98/C62131-P98.minimised.mol

>  <scratch_subdir>  (492) 
/opt/xchem-fragalysis-2/maxwin/BulkDock/SCRATCH/511021/C62131-P98

>  <fragmenstein_runtime>  (492) 
2.2330074310302734

>  <fragmenstein_outcome>  (492) 
too moved

>  <fragmenstein_mode>  (492) 
expansion

>  <fragmenstein_error>  (492) 


$$$$
C62132-P97
     RDKit          3D

 42 44  0  0  0  0  0  0  0  0999 V2000
   17.9930    0.1615   17.6844 O   0  0  0  0  0  0  0  0  0  0  0  0
   17.0653   -0.4429   17.3183 C   0  0  0  0  0  0  0  0  0  0  0  0
   16.7785   -1.9034   17.7348 C   0  0  0  0  0  0  0  0  0  0  0  0
   16.0215   -2.6156   16.6878 N   0  0  0  0  0  0  0  0  0  0  0  0
   16.7874   -3.0960   15.5484 C   0  0  0  0  0  0  0  0  0  0  0  0
   17.8780   -4.1175   15.8393 C   0  0  0  0  0  0  0  0  0  0  0  0
   17.6968   -4.9707   17.0777 C   0  0  0  0  0  0  0  0  0  0  0  0
   16.3977   -5.5585   17.2517 N   0  0  0  0  0  0  0  0  0  0  0  0
   15.3266   -4.8591   17.7411 C   0  0  0  0  0  0  0  0  0  0  0  0
   14.5834   -5.4141   18.5488 O   0  0  0  0  0  0  0  0  0  0  0  0
   14.9496   -3.5325   17.1476 C   0  0  0  0  0  0  0  0  0  0  0  0
   13.6490   -3.5667   16.3638 C   0  0  0  0  0  0  0  0  0  0  0  0
   13.7088   -2.8500   17.6557 C   0  0  0  0  0  0  0  0  0  0  0  0
   15.8575   -0.0019   16.4614 N   0  0  0  0  0  0  0  0  0  0  0  0
   15.5885    1.2435   15.8005 C   0  0  0  0  0  0  0  0  0  0  0  0
   15.0594    1.0199   14.3852 C   0  0  0  0  0  0  0  0  0  0  0  0
   13.8346    0.1446   14.3269 C   0  0  0  0  0  0  0  0  0  0  0  0
   13.6936   -1.0749   13.6969 C   0  0  0  0  0  0  0  0  0  0  0  0
   12.3907   -1.6255   13.8659 C   0  0  0  0  0  0  0  0  0  0  0  0
   11.5905   -0.8328   14.6521 C   0  0  0  0  0  0  0  0  0  0  0  0
   12.3727    0.6238   15.0751 S   0  0  0  0  0  0  0  0  0  0  0  0
   16.1995   -1.8444   18.6643 H   0  0  0  0  0  0  0  0  0  0  0  0
   17.7358   -2.3733   17.9674 H   0  0  0  0  0  0  0  0  0  0  0  0
   17.2384   -2.2436   15.0245 H   0  0  0  0  0  0  0  0  0  0  0  0
   16.0976   -3.5235   14.8117 H   0  0  0  0  0  0  0  0  0  0  0  0
   17.9674   -4.7743   14.9641 H   0  0  0  0  0  0  0  0  0  0  0  0
   18.8418   -3.5998   15.9268 H   0  0  0  0  0  0  0  0  0  0  0  0
   17.9456   -4.4275   17.9933 H   0  0  0  0  0  0  0  0  0  0  0  0
   18.4081   -5.8041   17.0256 H   0  0  0  0  0  0  0  0  0  0  0  0
   16.4165   -6.4650   17.7084 H   0  0  0  0  0  0  0  0  0  0  0  0
   13.6195   -2.9972   15.4608 H   0  0  0  0  0  0  0  0  0  0  0  0
   13.0676   -4.4807   16.3495 H   0  0  0  0  0  0  0  0  0  0  0  0
   13.6632   -1.7717   17.6201 H   0  0  0  0  0  0  0  0  0  0  0  0
   13.2218   -3.3223   18.5015 H   0  0  0  0  0  0  0  0  0  0  0  0
   15.1866   -0.7671   16.3994 H   0  0  0  0  0  0  0  0  0  0  0  0
   16.5126    1.8299   15.7778 H   0  0  0  0  0  0  0  0  0  0  0  0
   14.8652    1.7855   16.4180 H   0  0  0  0  0  0  0  0  0  0  0  0
   14.8353    1.9887   13.9222 H   0  0  0  0  0  0  0  0  0  0  0  0
   15.8503    0.5594   13.7785 H   0  0  0  0  0  0  0  0  0  0  0  0
   14.4879   -1.5566   13.1383 H   0  0  0  0  0  0  0  0  0  0  0  0
   12.0569   -2.5703   13.4543 H   0  0  0  0  0  0  0  0  0  0  0  0
   10.5631   -1.0146   14.9360 H   0  0  0  0  0  0  0  0  0  0  0  0
  1  2  2  0
  2  3  1  0
  3  4  1  0
  4  5  1  0
  5  6  1  0
  6  7  1  0
  7  8  1  0
  8  9  1  0
  9 10  2  0
  9 11  1  0
 11 12  1  0
 12 13  1  0
  2 14  1  0
 14 15  1  0
 15 16  1  0
 16 17  1  0
 17 18  2  0
 18 19  1  0
 19 20  2  0
 20 21  1  0
 11  4  1  0
 21 17  1  0
 13 11  1  0
  3 22  1  0
  3 23  1  0
  5 24  1  0
  5 25  1  0
  6 26  1  0
  6 27  1  0
  7 28  1  0
  7 29  1  0
  8 30  1  0
 12 31  1  0
 12 32  1  0
 13 33  1  0
 13 34  1  0
 14 35  1  0
 15 36  1  0
 15 37  1  0
 16 38  1  0
 16 39  1  0
 18 40  1  0
 19 41  1  0
 20 42  1  0
M  END
>  <Energy>  (493) 
70.583513246399363

>  <compound_id>  (493) 
62132

>  <target_id>  (493) 
1

>  <reference_id>  (493) 
97

>  <inspiration_ids>  (493) 
[97, 98]

>  <energy_score>  (493) 
-58.37968026441675

>  <distance_score>  (493) 
2.681165368938734

>  <path>  (493) 
/opt/xchem-fragalysis-2/maxwin/BulkDock/SCRATCH/511021/C62132-P97/C62132-P97.minimised.mol

>  <scratch_subdir>  (493) 
/opt/xchem-fragalysis-2/maxwin/BulkDock/SCRATCH/511021/C62132-P97

>  <fragmenstein_runtime>  (493) 
3.4947690963745117

>  <fragmenstein_outcome>  (493) 
too moved

>  <fragmenstein_mode>  (493) 
expansion

>  <fragmenstein_error>  (493) 


$$$$
C62132-P98
     RDKit          3D

 42 44  0  0  0  0  0  0  0  0999 V2000
   16.3108   -2.3810   12.7717 O   0  0  0  0  0  0  0  0  0  0  0  0
   16.5392   -2.2438   13.9079 C   0  0  0  0  0  0  0  0  0  0  0  0
   16.8386   -3.4478   14.8298 C   0  0  0  0  0  0  0  0  0  0  0  0
   16.7081   -3.1538   16.2898 N   0  0  0  0  0  0  0  0  0  0  0  0
   17.7263   -3.9789   16.9720 C   0  0  0  0  0  0  0  0  0  0  0  0
   17.9982   -3.5544   18.4081 C   0  0  0  0  0  0  0  0  0  0  0  0
   16.7597   -3.3321   19.2549 C   0  0  0  0  0  0  0  0  0  0  0  0
   15.7670   -4.3455   19.0293 N   0  0  0  0  0  0  0  0  0  0  0  0
   15.0795   -4.4850   17.8577 C   0  0  0  0  0  0  0  0  0  0  0  0
   14.3025   -5.4161   17.6943 O   0  0  0  0  0  0  0  0  0  0  0  0
   15.2703   -3.4007   16.8177 C   0  0  0  0  0  0  0  0  0  0  0  0
   14.0530   -3.0041   16.0147 C   0  0  0  0  0  0  0  0  0  0  0  0
   14.4927   -2.1319   17.1363 C   0  0  0  0  0  0  0  0  0  0  0  0
   16.6858   -0.9559   14.7524 N   0  0  0  0  0  0  0  0  0  0  0  0
   16.4880    0.4267   14.3934 C   0  0  0  0  0  0  0  0  0  0  0  0
   15.1997    1.0536   14.9406 C   0  0  0  0  0  0  0  0  0  0  0  0
   13.9199    0.3135   14.6620 C   0  0  0  0  0  0  0  0  0  0  0  0
   12.8723    0.0906   15.5381 C   0  0  0  0  0  0  0  0  0  0  0  0
   11.8871   -0.7875   15.0066 C   0  0  0  0  0  0  0  0  0  0  0  0
   12.2096   -1.1858   13.7332 C   0  0  0  0  0  0  0  0  0  0  0  0
   13.5622   -0.3376   13.1229 S   0  0  0  0  0  0  0  0  0  0  0  0
   17.8686   -3.7212   14.5653 H   0  0  0  0  0  0  0  0  0  0  0  0
   16.2076   -4.2942   14.5763 H   0  0  0  0  0  0  0  0  0  0  0  0
   18.6934   -3.8842   16.4596 H   0  0  0  0  0  0  0  0  0  0  0  0
   17.4673   -5.0450   16.9208 H   0  0  0  0  0  0  0  0  0  0  0  0
   18.6169   -4.3308   18.8763 H   0  0  0  0  0  0  0  0  0  0  0  0
   18.5985   -2.6360   18.4206 H   0  0  0  0  0  0  0  0  0  0  0  0
   16.3261   -2.3467   19.0600 H   0  0  0  0  0  0  0  0  0  0  0  0
   17.0226   -3.3568   20.3178 H   0  0  0  0  0  0  0  0  0  0  0  0
   15.6068   -5.0709   19.7170 H   0  0  0  0  0  0  0  0  0  0  0  0
   14.1876   -2.6449   15.0095 H   0  0  0  0  0  0  0  0  0  0  0  0
   13.1434   -3.5820   16.1462 H   0  0  0  0  0  0  0  0  0  0  0  0
   14.9685   -1.1860   16.9344 H   0  0  0  0  0  0  0  0  0  0  0  0
   13.8992   -2.1303   18.0396 H   0  0  0  0  0  0  0  0  0  0  0  0
   16.8043   -1.2039   15.7326 H   0  0  0  0  0  0  0  0  0  0  0  0
   16.5048    0.4867   13.2998 H   0  0  0  0  0  0  0  0  0  0  0  0
   17.3527    0.9830   14.7697 H   0  0  0  0  0  0  0  0  0  0  0  0
   15.3077    1.1521   16.0291 H   0  0  0  0  0  0  0  0  0  0  0  0
   15.1074    2.0742   14.5483 H   0  0  0  0  0  0  0  0  0  0  0  0
   12.8579    0.4848   16.5448 H   0  0  0  0  0  0  0  0  0  0  0  0
   11.0163   -1.1530   15.5325 H   0  0  0  0  0  0  0  0  0  0  0  0
   11.6918   -1.8937   13.1069 H   0  0  0  0  0  0  0  0  0  0  0  0
  1  2  2  0
  2  3  1  0
  3  4  1  0
  4  5  1  0
  5  6  1  0
  6  7  1  0
  7  8  1  0
  8  9  1  0
  9 10  2  0
  9 11  1  0
 11 12  1  0
 12 13  1  0
  2 14  1  0
 14 15  1  0
 15 16  1  0
 16 17  1  0
 17 18  2  0
 18 19  1  0
 19 20  2  0
 20 21  1  0
 11  4  1  0
 21 17  1  0
 13 11  1  0
  3 22  1  0
  3 23  1  0
  5 24  1  0
  5 25  1  0
  6 26  1  0
  6 27  1  0
  7 28  1  0
  7 29  1  0
  8 30  1  0
 12 31  1  0
 12 32  1  0
 13 33  1  0
 13 34  1  0
 14 35  1  0
 15 36  1  0
 15 37  1  0
 16 38  1  0
 16 39  1  0
 18 40  1  0
 19 41  1  0
 20 42  1  0
M  END
>  <Energy>  (494) 
71.63894348274691

>  <compound_id>  (494) 
62132

>  <target_id>  (494) 
1

>  <reference_id>  (494) 
98

>  <inspiration_ids>  (494) 
[97, 98]

>  <energy_score>  (494) 
-57.32425002806826

>  <distance_score>  (494) 
1.68236625033326

>  <path>  (494) 
/opt/xchem-fragalysis-2/maxwin/BulkDock/SCRATCH/511021/C62132-P98/C62132-P98.minimised.mol

>  <scratch_subdir>  (494) 
/opt/xchem-fragalysis-2/maxwin/BulkDock/SCRATCH/511021/C62132-P98

>  <fragmenstein_runtime>  (494) 
2.5343017578125

>  <fragmenstein_outcome>  (494) 
too moved

>  <fragmenstein_mode>  (494) 
expansion

>  <fragmenstein_error>  (494) 


$$$$
C62133-P97
     RDKit          3D

 39 40  0  0  0  0  0  0  0  0999 V2000
   13.8651   -3.1748   17.2393 O   0  0  0  0  0  0  0  0  0  0  0  0
   13.4339   -2.7377   16.1780 C   0  0  0  0  0  0  0  0  0  0  0  0
   14.2301   -1.8620   15.1986 C   0  0  0  0  0  0  0  0  0  0  0  0
   13.7616   -0.4104   15.0107 C   0  0  0  0  0  0  0  0  0  0  0  0
   14.7434    0.6437   15.5759 C   0  0  0  0  0  0  0  0  0  0  0  0
   14.7565    0.7131   17.1021 C   0  0  0  0  0  0  0  0  0  0  0  0
   14.0584    1.4182   17.7122 O   0  0  0  0  0  0  0  0  0  0  0  0
   15.7523   -0.3625   17.5776 N   0  0  0  0  0  0  0  0  0  0  0  0
   16.0288   -0.8622   18.8995 C   0  0  0  0  0  0  0  0  0  0  0  0
   17.2611   -1.7683   18.9258 C   0  0  0  0  0  0  0  0  0  0  0  0
   17.2217   -2.8270   17.8518 C   0  0  0  0  0  0  0  0  0  0  0  0
   16.4852   -3.9914   17.8230 C   0  0  0  0  0  0  0  0  0  0  0  0
   16.6863   -4.7240   16.6234 C   0  0  0  0  0  0  0  0  0  0  0  0
   17.5993   -4.1221   15.7916 C   0  0  0  0  0  0  0  0  0  0  0  0
   18.2078   -2.6710   16.4552 S   0  0  0  0  0  0  0  0  0  0  0  0
   12.3499   -0.1734   15.5419 C   0  0  0  0  0  0  0  0  0  0  0  0
   11.2530   -0.9679   14.8422 C   0  0  0  0  0  0  0  0  0  0  0  0
   11.4699   -2.4714   14.6988 C   0  0  0  0  0  0  0  0  0  0  0  0
   12.1546   -3.0434   15.8236 N   0  0  0  0  0  0  0  0  0  0  0  0
   15.2865   -1.9221   15.4610 H   0  0  0  0  0  0  0  0  0  0  0  0
   14.1887   -2.3501   14.2189 H   0  0  0  0  0  0  0  0  0  0  0  0
   13.7424   -0.2264   13.9267 H   0  0  0  0  0  0  0  0  0  0  0  0
   15.7558    0.4760   15.1902 H   0  0  0  0  0  0  0  0  0  0  0  0
   14.4556    1.6405   15.2164 H   0  0  0  0  0  0  0  0  0  0  0  0
   16.2570   -0.7322   16.7807 H   0  0  0  0  0  0  0  0  0  0  0  0
   15.1359   -1.4091   19.2221 H   0  0  0  0  0  0  0  0  0  0  0  0
   16.1484   -0.0084   19.5738 H   0  0  0  0  0  0  0  0  0  0  0  0
   17.3393   -2.2478   19.9089 H   0  0  0  0  0  0  0  0  0  0  0  0
   18.1611   -1.1509   18.8094 H   0  0  0  0  0  0  0  0  0  0  0  0
   15.8013   -4.2852   18.6111 H   0  0  0  0  0  0  0  0  0  0  0  0
   16.1870   -5.6505   16.3791 H   0  0  0  0  0  0  0  0  0  0  0  0
   17.9356   -4.4656   14.8229 H   0  0  0  0  0  0  0  0  0  0  0  0
   12.0972    0.8915   15.4571 H   0  0  0  0  0  0  0  0  0  0  0  0
   12.3230   -0.4061   16.6080 H   0  0  0  0  0  0  0  0  0  0  0  0
   10.3195   -0.8018   15.3955 H   0  0  0  0  0  0  0  0  0  0  0  0
   11.1020   -0.5292   13.8505 H   0  0  0  0  0  0  0  0  0  0  0  0
   12.0357   -2.6932   13.7886 H   0  0  0  0  0  0  0  0  0  0  0  0
   10.5094   -2.9839   14.6234 H   0  0  0  0  0  0  0  0  0  0  0  0
   11.6772   -3.6783   16.4538 H   0  0  0  0  0  0  0  0  0  0  0  0
  1  2  2  0
  2  3  1  0
  3  4  1  0
  4  5  1  0
  5  6  1  0
  6  7  2  0
  6  8  1  0
  8  9  1  0
  9 10  1  0
 10 11  1  0
 11 12  2  0
 12 13  1  0
 13 14  2  0
 14 15  1  0
  4 16  1  0
 16 17  1  0
 17 18  1  0
 18 19  1  0
 19  2  1  0
 15 11  1  0
  3 20  1  0
  3 21  1  0
  4 22  1  0
  5 23  1  0
  5 24  1  0
  8 25  1  0
  9 26  1  0
  9 27  1  0
 10 28  1  0
 10 29  1  0
 12 30  1  0
 13 31  1  0
 14 32  1  0
 16 33  1  0
 16 34  1  0
 17 35  1  0
 17 36  1  0
 18 37  1  0
 18 38  1  0
 19 39  1  0
M  END
>  <Energy>  (495) 
3.6782967911158209

>  <compound_id>  (495) 
62133

>  <target_id>  (495) 
1

>  <reference_id>  (495) 
97

>  <inspiration_ids>  (495) 
[97, 98]

>  <energy_score>  (495) 
-33.994880821320436

>  <distance_score>  (495) 
3.069194866794859

>  <path>  (495) 
/opt/xchem-fragalysis-2/maxwin/BulkDock/SCRATCH/511021/C62133-P97/C62133-P97.minimised.mol

>  <scratch_subdir>  (495) 
/opt/xchem-fragalysis-2/maxwin/BulkDock/SCRATCH/511021/C62133-P97

>  <fragmenstein_runtime>  (495) 
3.847276449203491

>  <fragmenstein_outcome>  (495) 
too moved

>  <fragmenstein_mode>  (495) 
expansion

>  <fragmenstein_error>  (495) 


$$$$
C62133-P98
     RDKit          3D

 39 40  0  0  0  0  0  0  0  0999 V2000
   14.0099   -3.0851   17.3949 O   0  0  0  0  0  0  0  0  0  0  0  0
   13.4803   -2.6912   16.3603 C   0  0  0  0  0  0  0  0  0  0  0  0
   14.1210   -1.6868   15.4095 C   0  0  0  0  0  0  0  0  0  0  0  0
   13.5390   -0.2810   15.5234 C   0  0  0  0  0  0  0  0  0  0  0  0
   14.0534    0.4924   16.7547 C   0  0  0  0  0  0  0  0  0  0  0  0
   15.5374    0.8197   16.6552 C   0  0  0  0  0  0  0  0  0  0  0  0
   15.9404    1.7262   16.0429 O   0  0  0  0  0  0  0  0  0  0  0  0
   16.2959   -0.2983   17.4067 N   0  0  0  0  0  0  0  0  0  0  0  0
   17.7042   -0.4784   17.6391 C   0  0  0  0  0  0  0  0  0  0  0  0
   18.2991   -1.5017   16.6706 C   0  0  0  0  0  0  0  0  0  0  0  0
   17.6527   -2.8594   16.7646 C   0  0  0  0  0  0  0  0  0  0  0  0
   16.9862   -3.5596   15.7812 C   0  0  0  0  0  0  0  0  0  0  0  0
   16.5453   -4.8291   16.2313 C   0  0  0  0  0  0  0  0  0  0  0  0
   16.9116   -5.0776   17.5317 C   0  0  0  0  0  0  0  0  0  0  0  0
   17.7823   -3.7764   18.2094 S   0  0  0  0  0  0  0  0  0  0  0  0
   12.0121   -0.2934   15.5741 C   0  0  0  0  0  0  0  0  0  0  0  0
   11.3209   -1.2425   14.6119 C   0  0  0  0  0  0  0  0  0  0  0  0
   11.5272   -2.7453   14.8204 C   0  0  0  0  0  0  0  0  0  0  0  0
   12.2175   -3.1014   16.0368 N   0  0  0  0  0  0  0  0  0  0  0  0
   15.1937   -1.6709   15.5817 H   0  0  0  0  0  0  0  0  0  0  0  0
   14.0178   -2.0559   14.3826 H   0  0  0  0  0  0  0  0  0  0  0  0
   13.8498    0.2686   14.6244 H   0  0  0  0  0  0  0  0  0  0  0  0
   13.5319    1.4552   16.8384 H   0  0  0  0  0  0  0  0  0  0  0  0
   13.8313   -0.0447   17.6830 H   0  0  0  0  0  0  0  0  0  0  0  0
   15.6305   -0.8848   17.9052 H   0  0  0  0  0  0  0  0  0  0  0  0
   18.1955    0.4894   17.4953 H   0  0  0  0  0  0  0  0  0  0  0  0
   17.8331   -0.7772   18.6838 H   0  0  0  0  0  0  0  0  0  0  0  0
   19.3754   -1.5986   16.8589 H   0  0  0  0  0  0  0  0  0  0  0  0
   18.1929   -1.1288   15.6435 H   0  0  0  0  0  0  0  0  0  0  0  0
   16.8315   -3.1842   14.7767 H   0  0  0  0  0  0  0  0  0  0  0  0
   16.0007   -5.5330   15.6202 H   0  0  0  0  0  0  0  0  0  0  0  0
   16.7141   -5.9632   18.1194 H   0  0  0  0  0  0  0  0  0  0  0  0
   11.6738   -0.5392   16.5814 H   0  0  0  0  0  0  0  0  0  0  0  0
   11.6487    0.7244   15.3799 H   0  0  0  0  0  0  0  0  0  0  0  0
   10.2467   -1.0419   14.7095 H   0  0  0  0  0  0  0  0  0  0  0  0
   11.5948   -0.9782   13.5836 H   0  0  0  0  0  0  0  0  0  0  0  0
   12.0782   -3.1640   13.9732 H   0  0  0  0  0  0  0  0  0  0  0  0
   10.5588   -3.2502   14.8488 H   0  0  0  0  0  0  0  0  0  0  0  0
   11.8671   -3.8593   16.6157 H   0  0  0  0  0  0  0  0  0  0  0  0
  1  2  2  0
  2  3  1  0
  3  4  1  0
  4  5  1  0
  5  6  1  0
  6  7  2  0
  6  8  1  0
  8  9  1  0
  9 10  1  0
 10 11  1  0
 11 12  2  0
 12 13  1  0
 13 14  2  0
 14 15  1  0
  4 16  1  0
 16 17  1  0
 17 18  1  0
 18 19  1  0
 19  2  1  0
 15 11  1  0
  3 20  1  0
  3 21  1  0
  4 22  1  0
  5 23  1  0
  5 24  1  0
  8 25  1  0
  9 26  1  0
  9 27  1  0
 10 28  1  0
 10 29  1  0
 12 30  1  0
 13 31  1  0
 14 32  1  0
 16 33  1  0
 16 34  1  0
 17 35  1  0
 17 36  1  0
 18 37  1  0
 18 38  1  0
 19 39  1  0
M  END
>  <Energy>  (496) 
0.34021582467132516

>  <compound_id>  (496) 
62133

>  <target_id>  (496) 
1

>  <reference_id>  (496) 
98

>  <inspiration_ids>  (496) 
[97, 98]

>  <energy_score>  (496) 
-37.33296178776473

>  <distance_score>  (496) 
2.8801753715674394

>  <path>  (496) 
/opt/xchem-fragalysis-2/maxwin/BulkDock/SCRATCH/511021/C62133-P98/C62133-P98.minimised.mol

>  <scratch_subdir>  (496) 
/opt/xchem-fragalysis-2/maxwin/BulkDock/SCRATCH/511021/C62133-P98

>  <fragmenstein_runtime>  (496) 
4.332104682922363

>  <fragmenstein_outcome>  (496) 
too moved

>  <fragmenstein_mode>  (496) 
expansion

>  <fragmenstein_error>  (496) 


$$$$
C5419-P97
     RDKit          3D

 35 36  0  0  0  0  0  0  0  0999 V2000
   15.4298   -2.4642   13.3463 O   0  0  0  0  0  0  0  0  0  0  0  0
   16.2067   -2.0930   14.1335 C   0  0  0  0  0  0  0  0  0  0  0  0
   17.0047   -3.0709   15.0264 C   0  0  0  0  0  0  0  0  0  0  0  0
   16.4209   -3.2956   16.3657 N   0  0  0  0  0  0  0  0  0  0  0  0
   16.4062   -2.1205   17.2236 C   0  0  0  0  0  0  0  0  0  0  0  0
   15.9932   -2.5130   18.6384 C   0  0  0  0  0  0  0  0  0  0  0  0
   14.7395   -3.2237   18.6635 N   0  0  0  0  0  0  0  0  0  0  0  0
   14.5204   -4.2008   17.7270 C   0  0  0  0  0  0  0  0  0  0  0  0
   13.8127   -5.1615   18.0158 O   0  0  0  0  0  0  0  0  0  0  0  0
   15.1151   -3.9823   16.3348 C   0  0  0  0  0  0  0  0  0  0  0  0
   16.5973   -0.6517   14.5585 N   0  0  0  0  0  0  0  0  0  0  0  0
   16.0435    0.6210   14.1692 C   0  0  0  0  0  0  0  0  0  0  0  0
   14.8493    1.0327   15.0452 C   0  0  0  0  0  0  0  0  0  0  0  0
   13.7296    0.0273   15.0734 C   0  0  0  0  0  0  0  0  0  0  0  0
   13.2641   -0.7140   16.1422 C   0  0  0  0  0  0  0  0  0  0  0  0
   12.3274   -1.7103   15.7498 C   0  0  0  0  0  0  0  0  0  0  0  0
   12.0518   -1.6489   14.4084 C   0  0  0  0  0  0  0  0  0  0  0  0
   12.8373   -0.3256   13.6603 S   0  0  0  0  0  0  0  0  0  0  0  0
   18.0365   -2.7119   15.1245 H   0  0  0  0  0  0  0  0  0  0  0  0
   17.0868   -4.0259   14.4959 H   0  0  0  0  0  0  0  0  0  0  0  0
   17.4071   -1.6763   17.2782 H   0  0  0  0  0  0  0  0  0  0  0  0
   15.7276   -1.3551   16.8545 H   0  0  0  0  0  0  0  0  0  0  0  0
   16.7496   -3.1653   19.0908 H   0  0  0  0  0  0  0  0  0  0  0  0
   15.8857   -1.6262   19.2709 H   0  0  0  0  0  0  0  0  0  0  0  0
   14.3571   -3.4765   19.5684 H   0  0  0  0  0  0  0  0  0  0  0  0
   15.2661   -4.9756   15.9047 H   0  0  0  0  0  0  0  0  0  0  0  0
   14.3831   -3.4264   15.7526 H   0  0  0  0  0  0  0  0  0  0  0  0
   17.3684   -0.6891   15.2122 H   0  0  0  0  0  0  0  0  0  0  0  0
   15.7418    0.5407   13.1198 H   0  0  0  0  0  0  0  0  0  0  0  0
   16.8405    1.3671   14.2442 H   0  0  0  0  0  0  0  0  0  0  0  0
   14.4625    1.9984   14.6974 H   0  0  0  0  0  0  0  0  0  0  0  0
   15.2043    1.1913   16.0720 H   0  0  0  0  0  0  0  0  0  0  0  0
   13.6411   -0.6080   17.1505 H   0  0  0  0  0  0  0  0  0  0  0  0
   11.9177   -2.4705   16.4007 H   0  0  0  0  0  0  0  0  0  0  0  0
   11.4168   -2.3057   13.8336 H   0  0  0  0  0  0  0  0  0  0  0  0
  1  2  2  0
  2  3  1  0
  3  4  1  0
  4  5  1  0
  5  6  1  0
  6  7  1  0
  7  8  1  0
  8  9  2  0
  8 10  1  0
  2 11  1  0
 11 12  1  0
 12 13  1  0
 13 14  1  0
 14 15  2  0
 15 16  1  0
 16 17  2  0
 17 18  1  0
 10  4  1  0
 18 14  1  0
  3 19  1  0
  3 20  1  0
  5 21  1  0
  5 22  1  0
  6 23  1  0
  6 24  1  0
  7 25  1  0
 10 26  1  0
 10 27  1  0
 11 28  1  0
 12 29  1  0
 12 30  1  0
 13 31  1  0
 13 32  1  0
 15 33  1  0
 16 34  1  0
 17 35  1  0
M  END
>  <Energy>  (497) 
115.40165777511515

>  <compound_id>  (497) 
5419

>  <target_id>  (497) 
1

>  <reference_id>  (497) 
97

>  <inspiration_ids>  (497) 
[97, 98]

>  <energy_score>  (497) 
-27.784484274841446

>  <distance_score>  (497) 
1.9313491298992396

>  <path>  (497) 
/opt/xchem-fragalysis-2/maxwin/BulkDock/SCRATCH/511021/C5419-P97/C5419-P97.minimised.mol

>  <scratch_subdir>  (497) 
/opt/xchem-fragalysis-2/maxwin/BulkDock/SCRATCH/511021/C5419-P97

>  <fragmenstein_runtime>  (497) 
2.4572763442993164

>  <fragmenstein_outcome>  (497) 
too moved

>  <fragmenstein_mode>  (497) 
expansion

>  <fragmenstein_error>  (497) 


$$$$
C5419-P98
     RDKit          3D

 35 36  0  0  0  0  0  0  0  0999 V2000
   16.0281   -2.0691   13.5654 O   0  0  0  0  0  0  0  0  0  0  0  0
   16.5717   -1.7411   14.5460 C   0  0  0  0  0  0  0  0  0  0  0  0
   17.2398   -2.7501   15.5038 C   0  0  0  0  0  0  0  0  0  0  0  0
   16.4067   -3.1327   16.6649 N   0  0  0  0  0  0  0  0  0  0  0  0
   16.1057   -2.0578   17.6022 C   0  0  0  0  0  0  0  0  0  0  0  0
   15.4512   -2.6168   18.8601 C   0  0  0  0  0  0  0  0  0  0  0  0
   14.2897   -3.4108   18.5543 N   0  0  0  0  0  0  0  0  0  0  0  0
   14.3960   -4.3125   17.5270 C   0  0  0  0  0  0  0  0  0  0  0  0
   13.8252   -5.3921   17.6219 O   0  0  0  0  0  0  0  0  0  0  0  0
   15.1891   -3.8779   16.2939 C   0  0  0  0  0  0  0  0  0  0  0  0
   16.6964   -0.3377   15.2087 N   0  0  0  0  0  0  0  0  0  0  0  0
   16.0983    0.9238   14.8485 C   0  0  0  0  0  0  0  0  0  0  0  0
   14.8246    0.8415   14.0086 C   0  0  0  0  0  0  0  0  0  0  0  0
   13.7533   -0.0910   14.5081 C   0  0  0  0  0  0  0  0  0  0  0  0
   13.3368   -0.3924   15.7880 C   0  0  0  0  0  0  0  0  0  0  0  0
   12.4002   -1.4679   15.8120 C   0  0  0  0  0  0  0  0  0  0  0  0
   12.0355   -1.8769   14.5539 C   0  0  0  0  0  0  0  0  0  0  0  0
   12.8388   -0.9697   13.3549 S   0  0  0  0  0  0  0  0  0  0  0  0
   18.1969   -2.3405   15.8487 H   0  0  0  0  0  0  0  0  0  0  0  0
   17.4984   -3.6441   14.9228 H   0  0  0  0  0  0  0  0  0  0  0  0
   17.0264   -1.5474   17.9069 H   0  0  0  0  0  0  0  0  0  0  0  0
   15.4342   -1.3195   17.1670 H   0  0  0  0  0  0  0  0  0  0  0  0
   16.1549   -3.2564   19.4062 H   0  0  0  0  0  0  0  0  0  0  0  0
   15.1361   -1.8083   19.5272 H   0  0  0  0  0  0  0  0  0  0  0  0
   13.7737   -3.8002   19.3366 H   0  0  0  0  0  0  0  0  0  0  0  0
   15.4893   -4.7906   15.7710 H   0  0  0  0  0  0  0  0  0  0  0  0
   14.5296   -3.2862   15.6590 H   0  0  0  0  0  0  0  0  0  0  0  0
   17.1684   -0.4245   16.0973 H   0  0  0  0  0  0  0  0  0  0  0  0
   16.8606    1.5047   14.3190 H   0  0  0  0  0  0  0  0  0  0  0  0
   15.8901    1.4440   15.7903 H   0  0  0  0  0  0  0  0  0  0  0  0
   15.1180    0.5499   12.9911 H   0  0  0  0  0  0  0  0  0  0  0  0
   14.3948    1.8478   13.9238 H   0  0  0  0  0  0  0  0  0  0  0  0
   13.7399    0.0807   16.6731 H   0  0  0  0  0  0  0  0  0  0  0  0
   12.0274   -1.9391   16.7064 H   0  0  0  0  0  0  0  0  0  0  0  0
   11.3386   -2.6552   14.2731 H   0  0  0  0  0  0  0  0  0  0  0  0
  1  2  2  0
  2  3  1  0
  3  4  1  0
  4  5  1  0
  5  6  1  0
  6  7  1  0
  7  8  1  0
  8  9  2  0
  8 10  1  0
  2 11  1  0
 11 12  1  0
 12 13  1  0
 13 14  1  0
 14 15  2  0
 15 16  1  0
 16 17  2  0
 17 18  1  0
 10  4  1  0
 18 14  1  0
  3 19  1  0
  3 20  1  0
  5 21  1  0
  5 22  1  0
  6 23  1  0
  6 24  1  0
  7 25  1  0
 10 26  1  0
 10 27  1  0
 11 28  1  0
 12 29  1  0
 12 30  1  0
 13 31  1  0
 13 32  1  0
 15 33  1  0
 16 34  1  0
 17 35  1  0
M  END
>  <Energy>  (498) 
118.92889701653417

>  <compound_id>  (498) 
5419

>  <target_id>  (498) 
1

>  <reference_id>  (498) 
98

>  <inspiration_ids>  (498) 
[97, 98]

>  <energy_score>  (498) 
-24.25724503342292

>  <distance_score>  (498) 
2.0495416880260904

>  <path>  (498) 
/opt/xchem-fragalysis-2/maxwin/BulkDock/SCRATCH/511021/C5419-P98/C5419-P98.minimised.mol

>  <scratch_subdir>  (498) 
/opt/xchem-fragalysis-2/maxwin/BulkDock/SCRATCH/511021/C5419-P98

>  <fragmenstein_runtime>  (498) 
2.4695956707000732

>  <fragmenstein_outcome>  (498) 
too moved

>  <fragmenstein_mode>  (498) 
expansion

>  <fragmenstein_error>  (498) 


$$$$
C18928-P97
     RDKit          3D

 48 50  0  0  0  0  0  0  0  0999 V2000
   16.5742    0.1964   16.7896 O   0  0  0  0  0  0  0  0  0  0  0  0
   16.2289   -0.0680   15.7076 C   0  0  0  0  0  0  0  0  0  0  0  0
   14.9830    0.5540   15.0976 C   0  0  0  0  0  0  0  0  0  0  0  0
   13.7529   -0.3627   15.0882 C   0  0  0  0  0  0  0  0  0  0  0  0
   13.6839   -1.2912   13.8836 C   0  0  0  0  0  0  0  0  0  0  0  0
   12.3040   -1.9385   13.8430 C   0  0  0  0  0  0  0  0  0  0  0  0
   11.7423   -2.3439   15.1984 C   0  0  0  0  0  0  0  0  0  0  0  0
   12.7766   -2.2832   16.2881 C   0  0  0  0  0  0  0  0  0  0  0  0
   12.8688   -3.1382   17.1588 O   0  0  0  0  0  0  0  0  0  0  0  0
   13.5875   -1.1714   16.2803 N   0  0  0  0  0  0  0  0  0  0  0  0
   16.7922   -1.0943   14.6997 N   0  0  0  0  0  0  0  0  0  0  0  0
   17.8421   -2.0793   14.8489 C   0  0  0  0  0  0  0  0  0  0  0  0
   17.3024   -3.4806   15.2933 C   0  0  0  0  0  0  0  0  0  0  0  0
   18.4283   -4.5104   15.4144 C   0  0  0  0  0  0  0  0  0  0  0  0
   18.4200   -5.8186   14.9551 C   0  0  0  0  0  0  0  0  0  0  0  0
   19.6327   -6.5149   15.2207 C   0  0  0  0  0  0  0  0  0  0  0  0
   20.5474   -5.7184   15.8670 C   0  0  0  0  0  0  0  0  0  0  0  0
   19.9432   -4.1475   16.1460 S   0  0  0  0  0  0  0  0  0  0  0  0
   16.3681   -3.4167   16.4440 N   0  0  0  0  0  0  0  0  0  0  0  0
   16.9410   -2.9363   17.7006 C   0  0  0  0  0  0  0  0  0  0  0  0
   16.8562   -4.1088   18.6531 C   0  0  0  0  0  0  0  0  0  0  0  0
   15.5688   -4.7790   18.2325 C   0  0  0  0  0  0  0  0  0  0  0  0
   15.6204   -4.6512   16.7197 C   0  0  0  0  0  0  0  0  0  0  0  0
   14.7546    1.4381   15.7086 H   0  0  0  0  0  0  0  0  0  0  0  0
   15.2099    0.9348   14.0952 H   0  0  0  0  0  0  0  0  0  0  0  0
   12.8750    0.2974   15.0502 H   0  0  0  0  0  0  0  0  0  0  0  0
   14.4381   -2.0821   13.9504 H   0  0  0  0  0  0  0  0  0  0  0  0
   13.8610   -0.7482   12.9484 H   0  0  0  0  0  0  0  0  0  0  0  0
   12.3244   -2.8071   13.1819 H   0  0  0  0  0  0  0  0  0  0  0  0
   11.6187   -1.2143   13.3966 H   0  0  0  0  0  0  0  0  0  0  0  0
   11.3358   -3.3595   15.1453 H   0  0  0  0  0  0  0  0  0  0  0  0
   10.9174   -1.6802   15.4824 H   0  0  0  0  0  0  0  0  0  0  0  0
   14.3532   -1.2547   16.9478 H   0  0  0  0  0  0  0  0  0  0  0  0
   16.3033   -1.0065   13.8197 H   0  0  0  0  0  0  0  0  0  0  0  0
   18.3549   -2.1574   13.8839 H   0  0  0  0  0  0  0  0  0  0  0  0
   18.5462   -1.6703   15.5799 H   0  0  0  0  0  0  0  0  0  0  0  0
   16.6815   -3.8050   14.4473 H   0  0  0  0  0  0  0  0  0  0  0  0
   17.5650   -6.2651   14.4636 H   0  0  0  0  0  0  0  0  0  0  0  0
   19.8214   -7.5481   14.9556 H   0  0  0  0  0  0  0  0  0  0  0  0
   21.5440   -5.9840   16.1917 H   0  0  0  0  0  0  0  0  0  0  0  0
   17.9544   -2.5330   17.6391 H   0  0  0  0  0  0  0  0  0  0  0  0
   16.3044   -2.1282   18.0794 H   0  0  0  0  0  0  0  0  0  0  0  0
   17.7036   -4.7903   18.5152 H   0  0  0  0  0  0  0  0  0  0  0  0
   16.8340   -3.7950   19.7008 H   0  0  0  0  0  0  0  0  0  0  0  0
   14.7086   -4.2411   18.6453 H   0  0  0  0  0  0  0  0  0  0  0  0
   15.5310   -5.8141   18.5791 H   0  0  0  0  0  0  0  0  0  0  0  0
   14.6227   -4.6222   16.2814 H   0  0  0  0  0  0  0  0  0  0  0  0
   16.1189   -5.5378   16.3208 H   0  0  0  0  0  0  0  0  0  0  0  0
  1  2  2  0
  2  3  1  0
  3  4  1  0
  4  5  1  0
  5  6  1  0
  6  7  1  0
  7  8  1  0
  8  9  2  0
  8 10  1  0
  2 11  1  0
 11 12  1  0
 12 13  1  0
 13 14  1  0
 14 15  2  0
 15 16  1  0
 16 17  2  0
 17 18  1  0
 13 19  1  0
 19 20  1  0
 20 21  1  0
 21 22  1  0
 22 23  1  0
 10  4  1  0
 18 14  1  0
 23 19  1  0
  3 24  1  0
  3 25  1  0
  4 26  1  0
  5 27  1  0
  5 28  1  0
  6 29  1  0
  6 30  1  0
  7 31  1  0
  7 32  1  0
 10 33  1  0
 11 34  1  0
 12 35  1  0
 12 36  1  0
 13 37  1  0
 15 38  1  0
 16 39  1  0
 17 40  1  0
 20 41  1  0
 20 42  1  0
 21 43  1  0
 21 44  1  0
 22 45  1  0
 22 46  1  0
 23 47  1  0
 23 48  1  0
M  END
>  <Energy>  (499) 
32.172668370324914

>  <compound_id>  (499) 
18928

>  <target_id>  (499) 
1

>  <reference_id>  (499) 
97

>  <inspiration_ids>  (499) 
[97, 98]

>  <energy_score>  (499) 
-30.166020473273477

>  <distance_score>  (499) 
2.028921909783411

>  <path>  (499) 
/opt/xchem-fragalysis-2/maxwin/BulkDock/SCRATCH/511021/C18928-P97/C18928-P97.minimised.mol

>  <scratch_subdir>  (499) 
/opt/xchem-fragalysis-2/maxwin/BulkDock/SCRATCH/511021/C18928-P97

>  <fragmenstein_runtime>  (499) 
3.123115062713623

>  <fragmenstein_outcome>  (499) 
too moved

>  <fragmenstein_mode>  (499) 
expansion

>  <fragmenstein_error>  (499) 


$$$$
C18928-P98
     RDKit          3D

 48 50  0  0  0  0  0  0  0  0999 V2000
   16.4383    0.2223   16.7400 O   0  0  0  0  0  0  0  0  0  0  0  0
   16.1549   -0.0442   15.6406 C   0  0  0  0  0  0  0  0  0  0  0  0
   14.9440    0.5748   14.9599 C   0  0  0  0  0  0  0  0  0  0  0  0
   13.7142   -0.3419   14.9059 C   0  0  0  0  0  0  0  0  0  0  0  0
   13.7260   -1.3200   13.7381 C   0  0  0  0  0  0  0  0  0  0  0  0
   12.3561   -1.9803   13.6296 C   0  0  0  0  0  0  0  0  0  0  0  0
   11.7183   -2.3459   14.9655 C   0  0  0  0  0  0  0  0  0  0  0  0
   12.6751   -2.2194   16.1213 C   0  0  0  0  0  0  0  0  0  0  0  0
   12.7177   -3.0317   17.0358 O   0  0  0  0  0  0  0  0  0  0  0  0
   13.4713   -1.0978   16.1194 N   0  0  0  0  0  0  0  0  0  0  0  0
   16.7732   -1.0740   14.6686 N   0  0  0  0  0  0  0  0  0  0  0  0
   17.8114   -2.0603   14.8798 C   0  0  0  0  0  0  0  0  0  0  0  0
   17.2398   -3.4525   15.3128 C   0  0  0  0  0  0  0  0  0  0  0  0
   18.3446   -4.4999   15.4651 C   0  0  0  0  0  0  0  0  0  0  0  0
   18.3275   -5.8072   15.0037 C   0  0  0  0  0  0  0  0  0  0  0  0
   19.5197   -6.5242   15.3041 C   0  0  0  0  0  0  0  0  0  0  0  0
   20.4286   -5.7433   15.9775 C   0  0  0  0  0  0  0  0  0  0  0  0
   19.8438   -4.1620   16.2389 S   0  0  0  0  0  0  0  0  0  0  0  0
   16.2796   -3.3693   16.4396 N   0  0  0  0  0  0  0  0  0  0  0  0
   16.8278   -2.8974   17.7106 C   0  0  0  0  0  0  0  0  0  0  0  0
   16.6748   -4.0604   18.6675 C   0  0  0  0  0  0  0  0  0  0  0  0
   15.3795   -4.6901   18.2084 C   0  0  0  0  0  0  0  0  0  0  0  0
   15.4955   -4.5837   16.6977 C   0  0  0  0  0  0  0  0  0  0  0  0
   14.6894    1.4696   15.5440 H   0  0  0  0  0  0  0  0  0  0  0  0
   15.2207    0.9363   13.9630 H   0  0  0  0  0  0  0  0  0  0  0  0
   12.8416    0.3146   14.7824 H   0  0  0  0  0  0  0  0  0  0  0  0
   14.4769   -2.1026   13.8866 H   0  0  0  0  0  0  0  0  0  0  0  0
   13.9627   -0.8137   12.7954 H   0  0  0  0  0  0  0  0  0  0  0  0
   12.4243   -2.8672   12.9934 H   0  0  0  0  0  0  0  0  0  0  0  0
   11.6953   -1.2808   13.1106 H   0  0  0  0  0  0  0  0  0  0  0  0
   11.3387   -3.3723   14.9273 H   0  0  0  0  0  0  0  0  0  0  0  0
   10.8618   -1.6931   15.1708 H   0  0  0  0  0  0  0  0  0  0  0  0
   14.1865   -1.1354   16.8449 H   0  0  0  0  0  0  0  0  0  0  0  0
   16.3355   -0.9875   13.7620 H   0  0  0  0  0  0  0  0  0  0  0  0
   18.3686   -2.1520   13.9410 H   0  0  0  0  0  0  0  0  0  0  0  0
   18.4824   -1.6479   15.6396 H   0  0  0  0  0  0  0  0  0  0  0  0
   16.6360   -3.7711   14.4516 H   0  0  0  0  0  0  0  0  0  0  0  0
   17.4803   -6.2373   14.4851 H   0  0  0  0  0  0  0  0  0  0  0  0
   19.6993   -7.5601   15.0435 H   0  0  0  0  0  0  0  0  0  0  0  0
   21.4108   -6.0258   16.3309 H   0  0  0  0  0  0  0  0  0  0  0  0
   17.8550   -2.5274   17.6796 H   0  0  0  0  0  0  0  0  0  0  0  0
   16.2052   -2.0668   18.0631 H   0  0  0  0  0  0  0  0  0  0  0  0
   17.5035   -4.7699   18.5604 H   0  0  0  0  0  0  0  0  0  0  0  0
   16.6290   -3.7383   19.7118 H   0  0  0  0  0  0  0  0  0  0  0  0
   14.5259   -4.1128   18.5799 H   0  0  0  0  0  0  0  0  0  0  0  0
   15.2849   -5.7170   18.5674 H   0  0  0  0  0  0  0  0  0  0  0  0
   14.5170   -4.5420   16.2188 H   0  0  0  0  0  0  0  0  0  0  0  0
   15.9980   -5.4811   16.3308 H   0  0  0  0  0  0  0  0  0  0  0  0
  1  2  2  0
  2  3  1  0
  3  4  1  0
  4  5  1  0
  5  6  1  0
  6  7  1  0
  7  8  1  0
  8  9  2  0
  8 10  1  0
  2 11  1  0
 11 12  1  0
 12 13  1  0
 13 14  1  0
 14 15  2  0
 15 16  1  0
 16 17  2  0
 17 18  1  0
 13 19  1  0
 19 20  1  0
 20 21  1  0
 21 22  1  0
 22 23  1  0
 10  4  1  0
 18 14  1  0
 23 19  1  0
  3 24  1  0
  3 25  1  0
  4 26  1  0
  5 27  1  0
  5 28  1  0
  6 29  1  0
  6 30  1  0
  7 31  1  0
  7 32  1  0
 10 33  1  0
 11 34  1  0
 12 35  1  0
 12 36  1  0
 13 37  1  0
 15 38  1  0
 16 39  1  0
 17 40  1  0
 20 41  1  0
 20 42  1  0
 21 43  1  0
 21 44  1  0
 22 45  1  0
 22 46  1  0
 23 47  1  0
 23 48  1  0
M  END
>  <Energy>  (500) 
31.672187859911972

>  <compound_id>  (500) 
18928

>  <target_id>  (500) 
1

>  <reference_id>  (500) 
98

>  <inspiration_ids>  (500) 
[97, 98]

>  <energy_score>  (500) 
-30.66650098368578

>  <distance_score>  (500) 
2.0129168433369755

>  <path>  (500) 
/opt/xchem-fragalysis-2/maxwin/BulkDock/SCRATCH/511021/C18928-P98/C18928-P98.minimised.mol

>  <scratch_subdir>  (500) 
/opt/xchem-fragalysis-2/maxwin/BulkDock/SCRATCH/511021/C18928-P98

>  <fragmenstein_runtime>  (500) 
3.328904390335083

>  <fragmenstein_outcome>  (500) 
too moved

>  <fragmenstein_mode>  (500) 
expansion

>  <fragmenstein_error>  (500) 


$$$$
C5420-P97
     RDKit          3D

 38 39  0  0  0  0  0  0  0  0999 V2000
   12.4102   -1.6251   14.0276 C   0  0  0  0  0  0  0  0  0  0  0  0
   13.1277   -1.7566   15.3245 C   0  0  0  0  0  0  0  0  0  0  0  0
   12.8649   -2.8192   16.2414 C   0  0  0  0  0  0  0  0  0  0  0  0
   13.6456   -2.7566   17.3649 C   0  0  0  0  0  0  0  0  0  0  0  0
   14.6637   -1.3986   17.3522 S   0  0  0  0  0  0  0  0  0  0  0  0
   14.1322   -0.9143   15.7873 C   0  0  0  0  0  0  0  0  0  0  0  0
   14.7164    0.2918   15.0770 C   0  0  0  0  0  0  0  0  0  0  0  0
   16.1770    0.6250   15.3822 C   0  0  0  0  0  0  0  0  0  0  0  0
   17.0530   -0.4961   15.1822 N   0  0  0  0  0  0  0  0  0  0  0  0
   17.7281   -1.0274   13.8941 C   0  0  0  0  0  0  0  0  0  0  0  0
   17.7389   -0.5921   12.8113 O   0  0  0  0  0  0  0  0  0  0  0  0
   18.5413   -2.2787   14.3232 C   0  0  0  0  0  0  0  0  0  0  0  0
   17.9834   -2.8859   15.5591 N   0  0  0  0  0  0  0  0  0  0  0  0
   18.9913   -3.6641   16.2887 C   0  0  0  0  0  0  0  0  0  0  0  0
   18.3829   -4.0955   17.6278 C   0  0  0  0  0  0  0  0  0  0  0  0
   17.1083   -4.7525   17.4876 N   0  0  0  0  0  0  0  0  0  0  0  0
   16.2672   -4.5268   16.4326 C   0  0  0  0  0  0  0  0  0  0  0  0
   15.1434   -5.0240   16.4627 O   0  0  0  0  0  0  0  0  0  0  0  0
   16.8381   -3.7816   15.2150 C   0  0  0  0  0  0  0  0  0  0  0  0
   11.7068   -2.4505   13.8800 H   0  0  0  0  0  0  0  0  0  0  0  0
   13.1196   -1.6426   13.1941 H   0  0  0  0  0  0  0  0  0  0  0  0
   11.8502   -0.6854   13.9924 H   0  0  0  0  0  0  0  0  0  0  0  0
   12.1491   -3.6165   16.0754 H   0  0  0  0  0  0  0  0  0  0  0  0
   13.6553   -3.4527   18.1933 H   0  0  0  0  0  0  0  0  0  0  0  0
   14.0946    1.1643   15.3129 H   0  0  0  0  0  0  0  0  0  0  0  0
   14.6282    0.1281   13.9952 H   0  0  0  0  0  0  0  0  0  0  0  0
   16.3027    0.9639   16.4154 H   0  0  0  0  0  0  0  0  0  0  0  0
   16.5092    1.4298   14.7181 H   0  0  0  0  0  0  0  0  0  0  0  0
   17.3175   -1.0844   15.9731 H   0  0  0  0  0  0  0  0  0  0  0  0
   18.5773   -2.9939   13.4938 H   0  0  0  0  0  0  0  0  0  0  0  0
   19.5584   -1.9107   14.5066 H   0  0  0  0  0  0  0  0  0  0  0  0
   19.3123   -4.5391   15.7093 H   0  0  0  0  0  0  0  0  0  0  0  0
   19.8790   -3.0550   16.4951 H   0  0  0  0  0  0  0  0  0  0  0  0
   19.0557   -4.7818   18.1515 H   0  0  0  0  0  0  0  0  0  0  0  0
   18.2229   -3.2234   18.2724 H   0  0  0  0  0  0  0  0  0  0  0  0
   16.6809   -5.2086   18.2831 H   0  0  0  0  0  0  0  0  0  0  0  0
   17.1644   -4.5485   14.5061 H   0  0  0  0  0  0  0  0  0  0  0  0
   16.0296   -3.1951   14.7702 H   0  0  0  0  0  0  0  0  0  0  0  0
  1  2  1  0
  2  3  1  0
  3  4  2  0
  4  5  1  0
  5  6  1  0
  6  7  1  0
  7  8  1  0
  8  9  1  0
  9 10  1  0
 10 11  2  0
 10 12  1  0
 12 13  1  0
 13 14  1  0
 14 15  1  0
 15 16  1  0
 16 17  1  0
 17 18  2  0
 17 19  1  0
  6  2  2  0
 19 13  1  0
  1 20  1  0
  1 21  1  0
  1 22  1  0
  3 23  1  0
  4 24  1  0
  7 25  1  0
  7 26  1  0
  8 27  1  0
  8 28  1  0
  9 29  1  0
 12 30  1  0
 12 31  1  0
 14 32  1  0
 14 33  1  0
 15 34  1  0
 15 35  1  0
 16 36  1  0
 19 37  1  0
 19 38  1  0
M  END
>  <Energy>  (501) 
108.42143277634231

>  <compound_id>  (501) 
5420

>  <target_id>  (501) 
1

>  <reference_id>  (501) 
97

>  <inspiration_ids>  (501) 
[97, 98]

>  <energy_score>  (501) 
-37.97676243718564

>  <distance_score>  (501) 
1.7250445471495435

>  <path>  (501) 
/opt/xchem-fragalysis-2/maxwin/BulkDock/SCRATCH/511021/C5420-P97/C5420-P97.minimised.mol

>  <scratch_subdir>  (501) 
/opt/xchem-fragalysis-2/maxwin/BulkDock/SCRATCH/511021/C5420-P97

>  <fragmenstein_runtime>  (501) 
2.6443591117858887

>  <fragmenstein_outcome>  (501) 
too moved

>  <fragmenstein_mode>  (501) 
expansion

>  <fragmenstein_error>  (501) 


$$$$
C5420-P98
     RDKit          3D

 38 39  0  0  0  0  0  0  0  0999 V2000
   12.4452   -1.6547   13.9302 C   0  0  0  0  0  0  0  0  0  0  0  0
   13.1152   -1.7585   15.2561 C   0  0  0  0  0  0  0  0  0  0  0  0
   12.8130   -2.7967   16.1894 C   0  0  0  0  0  0  0  0  0  0  0  0
   13.5415   -2.7019   17.3456 C   0  0  0  0  0  0  0  0  0  0  0  0
   14.5685   -1.3492   17.3354 S   0  0  0  0  0  0  0  0  0  0  0  0
   14.1061   -0.9096   15.7363 C   0  0  0  0  0  0  0  0  0  0  0  0
   14.7285    0.2748   15.0226 C   0  0  0  0  0  0  0  0  0  0  0  0
   16.2011    0.5552   15.3274 C   0  0  0  0  0  0  0  0  0  0  0  0
   17.0394   -0.5977   15.1391 N   0  0  0  0  0  0  0  0  0  0  0  0
   17.6403   -1.2039   13.8470 C   0  0  0  0  0  0  0  0  0  0  0  0
   17.6112   -0.8177   12.7461 O   0  0  0  0  0  0  0  0  0  0  0  0
   18.4414   -2.4560   14.2951 C   0  0  0  0  0  0  0  0  0  0  0  0
   17.9008   -3.0223   15.5589 N   0  0  0  0  0  0  0  0  0  0  0  0
   18.9013   -3.8523   16.2478 C   0  0  0  0  0  0  0  0  0  0  0  0
   18.3061   -4.5184   17.5088 C   0  0  0  0  0  0  0  0  0  0  0  0
   16.8894   -4.2428   17.6959 N   0  0  0  0  0  0  0  0  0  0  0  0
   16.1148   -4.4528   16.5659 C   0  0  0  0  0  0  0  0  0  0  0  0
   15.0579   -5.0715   16.6255 O   0  0  0  0  0  0  0  0  0  0  0  0
   16.7027   -3.8684   15.2696 C   0  0  0  0  0  0  0  0  0  0  0  0
   11.7210   -2.4631   13.7877 H   0  0  0  0  0  0  0  0  0  0  0  0
   13.1801   -1.7227   13.1214 H   0  0  0  0  0  0  0  0  0  0  0  0
   11.9148   -0.7013   13.8419 H   0  0  0  0  0  0  0  0  0  0  0  0
   12.1023   -3.5974   16.0165 H   0  0  0  0  0  0  0  0  0  0  0  0
   13.5108   -3.3745   18.1941 H   0  0  0  0  0  0  0  0  0  0  0  0
   14.1381    1.1690   15.2575 H   0  0  0  0  0  0  0  0  0  0  0  0
   14.6339    0.1134   13.9410 H   0  0  0  0  0  0  0  0  0  0  0  0
   16.3380    0.8991   16.3575 H   0  0  0  0  0  0  0  0  0  0  0  0
   16.5633    1.3413   14.6566 H   0  0  0  0  0  0  0  0  0  0  0  0
   17.3255   -1.1562   15.9420 H   0  0  0  0  0  0  0  0  0  0  0  0
   19.4692   -2.1047   14.4486 H   0  0  0  0  0  0  0  0  0  0  0  0
   18.4435   -3.1954   13.4863 H   0  0  0  0  0  0  0  0  0  0  0  0
   19.2973   -4.6303   15.5818 H   0  0  0  0  0  0  0  0  0  0  0  0
   19.7542   -3.2328   16.5504 H   0  0  0  0  0  0  0  0  0  0  0  0
   18.4213   -5.6063   17.4406 H   0  0  0  0  0  0  0  0  0  0  0  0
   18.8241   -4.1717   18.4090 H   0  0  0  0  0  0  0  0  0  0  0  0
   16.7837   -3.2728   17.9673 H   0  0  0  0  0  0  0  0  0  0  0  0
   16.9765   -4.7100   14.6272 H   0  0  0  0  0  0  0  0  0  0  0  0
   15.9257   -3.2681   14.7902 H   0  0  0  0  0  0  0  0  0  0  0  0
  1  2  1  0
  2  3  1  0
  3  4  2  0
  4  5  1  0
  5  6  1  0
  6  7  1  0
  7  8  1  0
  8  9  1  0
  9 10  1  0
 10 11  2  0
 10 12  1  0
 12 13  1  0
 13 14  1  0
 14 15  1  0
 15 16  1  0
 16 17  1  0
 17 18  2  0
 17 19  1  0
  6  2  2  0
 19 13  1  0
  1 20  1  0
  1 21  1  0
  1 22  1  0
  3 23  1  0
  4 24  1  0
  7 25  1  0
  7 26  1  0
  8 27  1  0
  8 28  1  0
  9 29  1  0
 12 30  1  0
 12 31  1  0
 14 32  1  0
 14 33  1  0
 15 34  1  0
 15 35  1  0
 16 36  1  0
 19 37  1  0
 19 38  1  0
M  END
>  <Energy>  (502) 
125.06955122100003

>  <compound_id>  (502) 
5420

>  <target_id>  (502) 
1

>  <reference_id>  (502) 
98

>  <inspiration_ids>  (502) 
[97, 98]

>  <energy_score>  (502) 
-21.328643992528157

>  <distance_score>  (502) 
1.6376779058436852

>  <path>  (502) 
/opt/xchem-fragalysis-2/maxwin/BulkDock/SCRATCH/511021/C5420-P98/C5420-P98.minimised.mol

>  <scratch_subdir>  (502) 
/opt/xchem-fragalysis-2/maxwin/BulkDock/SCRATCH/511021/C5420-P98

>  <fragmenstein_runtime>  (502) 
2.3722383975982666

>  <fragmenstein_outcome>  (502) 
too moved

>  <fragmenstein_mode>  (502) 
expansion

>  <fragmenstein_error>  (502) 


$$$$
C5421-P97
     RDKit          3D

 38 39  0  0  0  0  0  0  0  0999 V2000
   11.6430   -2.8091   15.6495 C   0  0  0  0  0  0  0  0  0  0  0  0
   12.5512   -1.8388   14.9942 C   0  0  0  0  0  0  0  0  0  0  0  0
   13.1018   -1.9184   13.7398 C   0  0  0  0  0  0  0  0  0  0  0  0
   14.0199   -0.8698   13.4834 C   0  0  0  0  0  0  0  0  0  0  0  0
   14.0903    0.0320   14.5224 C   0  0  0  0  0  0  0  0  0  0  0  0
   14.9615    1.2508   14.6187 C   0  0  0  0  0  0  0  0  0  0  0  0
   16.0434    1.1732   15.6967 C   0  0  0  0  0  0  0  0  0  0  0  0
   16.7666   -0.0692   15.6490 N   0  0  0  0  0  0  0  0  0  0  0  0
   16.6570   -1.3333   16.5426 C   0  0  0  0  0  0  0  0  0  0  0  0
   16.0190   -1.5291   17.4984 O   0  0  0  0  0  0  0  0  0  0  0  0
   17.5809   -2.3831   15.8822 C   0  0  0  0  0  0  0  0  0  0  0  0
   17.3640   -3.7850   16.2610 N   0  0  0  0  0  0  0  0  0  0  0  0
   17.9763   -4.2166   17.5094 C   0  0  0  0  0  0  0  0  0  0  0  0
   17.1314   -3.9409   18.7498 C   0  0  0  0  0  0  0  0  0  0  0  0
   15.7677   -4.3719   18.5909 N   0  0  0  0  0  0  0  0  0  0  0  0
   15.1466   -4.4477   17.3822 C   0  0  0  0  0  0  0  0  0  0  0  0
   13.9605   -4.7785   17.3626 O   0  0  0  0  0  0  0  0  0  0  0  0
   15.9762   -4.2667   16.1010 C   0  0  0  0  0  0  0  0  0  0  0  0
   13.0057   -0.3881   15.7704 S   0  0  0  0  0  0  0  0  0  0  0  0
   10.6860   -2.3183   15.8344 H   0  0  0  0  0  0  0  0  0  0  0  0
   11.4423   -3.6653   15.0028 H   0  0  0  0  0  0  0  0  0  0  0  0
   12.0639   -3.1734   16.5881 H   0  0  0  0  0  0  0  0  0  0  0  0
   12.8869   -2.7247   13.0549 H   0  0  0  0  0  0  0  0  0  0  0  0
   14.5982   -0.7816   12.5722 H   0  0  0  0  0  0  0  0  0  0  0  0
   15.4525    1.4008   13.6477 H   0  0  0  0  0  0  0  0  0  0  0  0
   14.3417    2.1401   14.7864 H   0  0  0  0  0  0  0  0  0  0  0  0
   15.5933    1.2530   16.6919 H   0  0  0  0  0  0  0  0  0  0  0  0
   16.7620    1.9898   15.5779 H   0  0  0  0  0  0  0  0  0  0  0  0
   17.4791   -0.2138   14.9434 H   0  0  0  0  0  0  0  0  0  0  0  0
   18.6196   -2.0901   16.0763 H   0  0  0  0  0  0  0  0  0  0  0  0
   17.4386   -2.3253   14.7954 H   0  0  0  0  0  0  0  0  0  0  0  0
   18.1361   -5.3010   17.4380 H   0  0  0  0  0  0  0  0  0  0  0  0
   18.9768   -3.7851   17.6327 H   0  0  0  0  0  0  0  0  0  0  0  0
   17.5404   -4.4915   19.6041 H   0  0  0  0  0  0  0  0  0  0  0  0
   17.1382   -2.8852   19.0287 H   0  0  0  0  0  0  0  0  0  0  0  0
   15.1424   -4.3787   19.3863 H   0  0  0  0  0  0  0  0  0  0  0  0
   16.0354   -5.2591   15.6414 H   0  0  0  0  0  0  0  0  0  0  0  0
   15.4178   -3.6130   15.4256 H   0  0  0  0  0  0  0  0  0  0  0  0
  1  2  1  0
  2  3  2  0
  3  4  1  0
  4  5  2  0
  5  6  1  0
  6  7  1  0
  7  8  1  0
  8  9  1  0
  9 10  2  0
  9 11  1  0
 11 12  1  0
 12 13  1  0
 13 14  1  0
 14 15  1  0
 15 16  1  0
 16 17  2  0
 16 18  1  0
  5 19  1  0
 19  2  1  0
 18 12  1  0
  1 20  1  0
  1 21  1  0
  1 22  1  0
  3 23  1  0
  4 24  1  0
  6 25  1  0
  6 26  1  0
  7 27  1  0
  7 28  1  0
  8 29  1  0
 11 30  1  0
 11 31  1  0
 13 32  1  0
 13 33  1  0
 14 34  1  0
 14 35  1  0
 15 36  1  0
 18 37  1  0
 18 38  1  0
M  END
>  <Energy>  (503) 
119.69126215909743

>  <compound_id>  (503) 
5421

>  <target_id>  (503) 
1

>  <reference_id>  (503) 
97

>  <inspiration_ids>  (503) 
[97, 98]

>  <energy_score>  (503) 
-14.100840257393003

>  <distance_score>  (503) 
2.312236827008199

>  <path>  (503) 
/opt/xchem-fragalysis-2/maxwin/BulkDock/SCRATCH/511021/C5421-P97/C5421-P97.minimised.mol

>  <scratch_subdir>  (503) 
/opt/xchem-fragalysis-2/maxwin/BulkDock/SCRATCH/511021/C5421-P97

>  <fragmenstein_runtime>  (503) 
2.0204999446868896

>  <fragmenstein_outcome>  (503) 
too moved

>  <fragmenstein_mode>  (503) 
expansion

>  <fragmenstein_error>  (503) 


$$$$
C5421-P98
     RDKit          3D

 38 39  0  0  0  0  0  0  0  0999 V2000
   11.3213   -3.1158   14.9065 C   0  0  0  0  0  0  0  0  0  0  0  0
   12.3975   -2.1347   15.1582 C   0  0  0  0  0  0  0  0  0  0  0  0
   13.0384   -1.9158   16.3508 C   0  0  0  0  0  0  0  0  0  0  0  0
   14.0113   -0.8928   16.2585 C   0  0  0  0  0  0  0  0  0  0  0  0
   14.1742   -0.4445   14.9665 C   0  0  0  0  0  0  0  0  0  0  0  0
   15.2227    0.5062   14.4765 C   0  0  0  0  0  0  0  0  0  0  0  0
   16.1822   -0.1086   13.4517 C   0  0  0  0  0  0  0  0  0  0  0  0
   16.8806   -1.3095   13.8609 N   0  0  0  0  0  0  0  0  0  0  0  0
   17.3596   -1.7704   15.2699 C   0  0  0  0  0  0  0  0  0  0  0  0
   17.3307   -1.2150   16.2992 O   0  0  0  0  0  0  0  0  0  0  0  0
   18.0159   -3.1656   15.0936 C   0  0  0  0  0  0  0  0  0  0  0  0
   17.5434   -4.1895   16.0308 N   0  0  0  0  0  0  0  0  0  0  0  0
   18.0294   -4.1026   17.4057 C   0  0  0  0  0  0  0  0  0  0  0  0
   17.1093   -3.3794   18.4109 C   0  0  0  0  0  0  0  0  0  0  0  0
   15.7340   -3.2805   17.9604 N   0  0  0  0  0  0  0  0  0  0  0  0
   15.3342   -4.3842   17.2247 C   0  0  0  0  0  0  0  0  0  0  0  0
   14.4420   -5.1432   17.5876 O   0  0  0  0  0  0  0  0  0  0  0  0
   16.1138   -4.5313   15.9109 C   0  0  0  0  0  0  0  0  0  0  0  0
   12.9892   -1.1072   13.9254 S   0  0  0  0  0  0  0  0  0  0  0  0
   10.3472   -2.6218   14.9630 H   0  0  0  0  0  0  0  0  0  0  0  0
   11.4190   -3.5652   13.9148 H   0  0  0  0  0  0  0  0  0  0  0  0
   11.3428   -3.9125   15.6542 H   0  0  0  0  0  0  0  0  0  0  0  0
   12.8248   -2.4856   17.2475 H   0  0  0  0  0  0  0  0  0  0  0  0
   14.6260   -0.5525   17.0841 H   0  0  0  0  0  0  0  0  0  0  0  0
   14.7369    1.3837   14.0317 H   0  0  0  0  0  0  0  0  0  0  0  0
   15.8026    0.8784   15.3304 H   0  0  0  0  0  0  0  0  0  0  0  0
   16.9531    0.6262   13.1958 H   0  0  0  0  0  0  0  0  0  0  0  0
   15.6534   -0.3564   12.5247 H   0  0  0  0  0  0  0  0  0  0  0  0
   17.1316   -2.0094   13.1718 H   0  0  0  0  0  0  0  0  0  0  0  0
   19.0996   -3.0273   15.1913 H   0  0  0  0  0  0  0  0  0  0  0  0
   17.8630   -3.5501   14.0800 H   0  0  0  0  0  0  0  0  0  0  0  0
   19.0428   -3.6861   17.4576 H   0  0  0  0  0  0  0  0  0  0  0  0
   18.1418   -5.1369   17.7596 H   0  0  0  0  0  0  0  0  0  0  0  0
   17.1054   -3.9190   19.3647 H   0  0  0  0  0  0  0  0  0  0  0  0
   17.4651   -2.3624   18.6054 H   0  0  0  0  0  0  0  0  0  0  0  0
   15.7163   -2.4620   17.3642 H   0  0  0  0  0  0  0  0  0  0  0  0
   16.0465   -5.5740   15.5937 H   0  0  0  0  0  0  0  0  0  0  0  0
   15.6186   -3.8963   15.1744 H   0  0  0  0  0  0  0  0  0  0  0  0
  1  2  1  0
  2  3  2  0
  3  4  1  0
  4  5  2  0
  5  6  1  0
  6  7  1  0
  7  8  1  0
  8  9  1  0
  9 10  2  0
  9 11  1  0
 11 12  1  0
 12 13  1  0
 13 14  1  0
 14 15  1  0
 15 16  1  0
 16 17  2  0
 16 18  1  0
  5 19  1  0
 19  2  1  0
 18 12  1  0
  1 20  1  0
  1 21  1  0
  1 22  1  0
  3 23  1  0
  4 24  1  0
  6 25  1  0
  6 26  1  0
  7 27  1  0
  7 28  1  0
  8 29  1  0
 11 30  1  0
 11 31  1  0
 13 32  1  0
 13 33  1  0
 14 34  1  0
 14 35  1  0
 15 36  1  0
 18 37  1  0
 18 38  1  0
M  END
>  <Energy>  (504) 
133.86810364453763

>  <compound_id>  (504) 
5421

>  <target_id>  (504) 
1

>  <reference_id>  (504) 
98

>  <inspiration_ids>  (504) 
[97, 98]

>  <energy_score>  (504) 
0.07600122804618081

>  <distance_score>  (504) 
1.9255365728878324

>  <path>  (504) 
/opt/xchem-fragalysis-2/maxwin/BulkDock/SCRATCH/511021/C5421-P98/C5421-P98.minimised.mol

>  <scratch_subdir>  (504) 
/opt/xchem-fragalysis-2/maxwin/BulkDock/SCRATCH/511021/C5421-P98

>  <fragmenstein_runtime>  (504) 
2.1147079467773438

>  <fragmenstein_outcome>  (504) 
too moved

>  <fragmenstein_mode>  (504) 
expansion

>  <fragmenstein_error>  (504) 


$$$$
C5422-P97
     RDKit          3D

 35 36  0  0  0  0  0  0  0  0999 V2000
   18.6090   -1.1472   16.1332 O   0  0  0  0  0  0  0  0  0  0  0  0
   17.8842   -1.7620   15.4542 C   0  0  0  0  0  0  0  0  0  0  0  0
   17.4122   -3.2038   15.7811 C   0  0  0  0  0  0  0  0  0  0  0  0
   16.2692   -3.1772   16.7251 N   0  0  0  0  0  0  0  0  0  0  0  0
   15.1784   -2.2966   16.3191 C   0  0  0  0  0  0  0  0  0  0  0  0
   14.1238   -2.2554   17.4079 C   0  0  0  0  0  0  0  0  0  0  0  0
   13.6178   -3.5616   17.7172 N   0  0  0  0  0  0  0  0  0  0  0  0
   14.5259   -4.5706   17.8529 C   0  0  0  0  0  0  0  0  0  0  0  0
   14.2702   -5.5123   18.5961 O   0  0  0  0  0  0  0  0  0  0  0  0
   15.7561   -4.5427   16.9509 C   0  0  0  0  0  0  0  0  0  0  0  0
   17.1209   -1.3502   14.1635 N   0  0  0  0  0  0  0  0  0  0  0  0
   17.0210   -0.0743   13.5036 C   0  0  0  0  0  0  0  0  0  0  0  0
   15.7971    0.7165   14.0052 C   0  0  0  0  0  0  0  0  0  0  0  0
   14.4728   -0.0165   13.9668 C   0  0  0  0  0  0  0  0  0  0  0  0
   13.3693    0.2192   14.7663 C   0  0  0  0  0  0  0  0  0  0  0  0
   12.3324   -0.7074   14.5146 C   0  0  0  0  0  0  0  0  0  0  0  0
   10.6730   -0.5982   15.3585 Br  0  0  0  0  0  0  0  0  0  0  0  0
   12.6623   -1.6692   13.6036 C   0  0  0  0  0  0  0  0  0  0  0  0
   14.1512   -1.2854   12.8568 S   0  0  0  0  0  0  0  0  0  0  0  0
   17.1654   -3.7434   14.8593 H   0  0  0  0  0  0  0  0  0  0  0  0
   18.2621   -3.7241   16.2388 H   0  0  0  0  0  0  0  0  0  0  0  0
   14.7423   -2.6533   15.3848 H   0  0  0  0  0  0  0  0  0  0  0  0
   15.5306   -1.2706   16.2056 H   0  0  0  0  0  0  0  0  0  0  0  0
   14.5431   -1.8330   18.3293 H   0  0  0  0  0  0  0  0  0  0  0  0
   13.2786   -1.6358   17.1052 H   0  0  0  0  0  0  0  0  0  0  0  0
   12.8500   -3.6577   18.3769 H   0  0  0  0  0  0  0  0  0  0  0  0
   16.5340   -5.1389   17.4416 H   0  0  0  0  0  0  0  0  0  0  0  0
   15.4872   -5.0299   16.0085 H   0  0  0  0  0  0  0  0  0  0  0  0
   16.5107   -2.1083   13.8734 H   0  0  0  0  0  0  0  0  0  0  0  0
   16.9639   -0.2586   12.4263 H   0  0  0  0  0  0  0  0  0  0  0  0
   17.9338    0.4925   13.7128 H   0  0  0  0  0  0  0  0  0  0  0  0
   15.7047    1.6382   13.4179 H   0  0  0  0  0  0  0  0  0  0  0  0
   15.9850    1.0201   15.0438 H   0  0  0  0  0  0  0  0  0  0  0  0
   13.3248    1.0243   15.4901 H   0  0  0  0  0  0  0  0  0  0  0  0
   12.0618   -2.5036   13.2685 H   0  0  0  0  0  0  0  0  0  0  0  0
  1  2  2  0
  2  3  1  0
  3  4  1  0
  4  5  1  0
  5  6  1  0
  6  7  1  0
  7  8  1  0
  8  9  2  0
  8 10  1  0
  2 11  1  0
 11 12  1  0
 12 13  1  0
 13 14  1  0
 14 15  2  0
 15 16  1  0
 16 17  1  0
 16 18  2  0
 18 19  1  0
 10  4  1  0
 19 14  1  0
  3 20  1  0
  3 21  1  0
  5 22  1  0
  5 23  1  0
  6 24  1  0
  6 25  1  0
  7 26  1  0
 10 27  1  0
 10 28  1  0
 11 29  1  0
 12 30  1  0
 12 31  1  0
 13 32  1  0
 13 33  1  0
 15 34  1  0
 18 35  1  0
M  END
>  <Energy>  (505) 
113.96660867311519

>  <compound_id>  (505) 
5422

>  <target_id>  (505) 
1

>  <reference_id>  (505) 
97

>  <inspiration_ids>  (505) 
[97, 98]

>  <energy_score>  (505) 
-26.353855550334686

>  <distance_score>  (505) 
2.3540292663225126

>  <path>  (505) 
/opt/xchem-fragalysis-2/maxwin/BulkDock/SCRATCH/511021/C5422-P97/C5422-P97.minimised.mol

>  <scratch_subdir>  (505) 
/opt/xchem-fragalysis-2/maxwin/BulkDock/SCRATCH/511021/C5422-P97

>  <fragmenstein_runtime>  (505) 
2.630338430404663

>  <fragmenstein_outcome>  (505) 
too moved

>  <fragmenstein_mode>  (505) 
expansion

>  <fragmenstein_error>  (505) 


$$$$
C5422-P98
     RDKit          3D

 35 36  0  0  0  0  0  0  0  0999 V2000
   16.0511   -0.5079   16.8309 O   0  0  0  0  0  0  0  0  0  0  0  0
   16.3964   -0.8834   15.7817 C   0  0  0  0  0  0  0  0  0  0  0  0
   16.5744   -2.3698   15.3919 C   0  0  0  0  0  0  0  0  0  0  0  0
   16.0852   -3.3188   16.3967 N   0  0  0  0  0  0  0  0  0  0  0  0
   16.8803   -3.2486   17.6300 C   0  0  0  0  0  0  0  0  0  0  0  0
   16.4081   -4.2665   18.6750 C   0  0  0  0  0  0  0  0  0  0  0  0
   14.9765   -4.1690   18.8883 N   0  0  0  0  0  0  0  0  0  0  0  0
   14.2930   -4.3174   17.6915 C   0  0  0  0  0  0  0  0  0  0  0  0
   13.5842   -5.2858   17.4729 O   0  0  0  0  0  0  0  0  0  0  0  0
   14.6355   -3.2404   16.6670 C   0  0  0  0  0  0  0  0  0  0  0  0
   16.6718   -0.0980   14.4763 N   0  0  0  0  0  0  0  0  0  0  0  0
   16.4880    1.2919   14.1685 C   0  0  0  0  0  0  0  0  0  0  0  0
   15.0425    1.7002   14.5150 C   0  0  0  0  0  0  0  0  0  0  0  0
   14.0294    0.6188   14.2210 C   0  0  0  0  0  0  0  0  0  0  0  0
   13.1637    0.0001   15.1046 C   0  0  0  0  0  0  0  0  0  0  0  0
   12.4949   -1.0762   14.4887 C   0  0  0  0  0  0  0  0  0  0  0  0
   11.2312   -2.1304   15.3433 Br  0  0  0  0  0  0  0  0  0  0  0  0
   12.8774   -1.2988   13.2007 C   0  0  0  0  0  0  0  0  0  0  0  0
   13.9121   -0.0618   12.6514 S   0  0  0  0  0  0  0  0  0  0  0  0
   16.0366   -2.5560   14.4542 H   0  0  0  0  0  0  0  0  0  0  0  0
   17.6383   -2.5471   15.1935 H   0  0  0  0  0  0  0  0  0  0  0  0
   17.9354   -3.4496   17.4084 H   0  0  0  0  0  0  0  0  0  0  0  0
   16.8327   -2.2610   18.0985 H   0  0  0  0  0  0  0  0  0  0  0  0
   16.6318   -5.2866   18.3397 H   0  0  0  0  0  0  0  0  0  0  0  0
   16.9058   -4.0993   19.6353 H   0  0  0  0  0  0  0  0  0  0  0  0
   14.7655   -3.2764   19.3165 H   0  0  0  0  0  0  0  0  0  0  0  0
   14.0659   -3.4413   15.7595 H   0  0  0  0  0  0  0  0  0  0  0  0
   14.3205   -2.2742   17.0729 H   0  0  0  0  0  0  0  0  0  0  0  0
   17.0381   -0.7296   13.7716 H   0  0  0  0  0  0  0  0  0  0  0  0
   17.2038    1.8833   14.7467 H   0  0  0  0  0  0  0  0  0  0  0  0
   16.6931    1.4272   13.1020 H   0  0  0  0  0  0  0  0  0  0  0  0
   14.7794    2.6227   13.9845 H   0  0  0  0  0  0  0  0  0  0  0  0
   14.9944    1.9355   15.5865 H   0  0  0  0  0  0  0  0  0  0  0  0
   13.0615    0.2959   16.1412 H   0  0  0  0  0  0  0  0  0  0  0  0
   12.5487   -2.0891   12.5462 H   0  0  0  0  0  0  0  0  0  0  0  0
  1  2  2  0
  2  3  1  0
  3  4  1  0
  4  5  1  0
  5  6  1  0
  6  7  1  0
  7  8  1  0
  8  9  2  0
  8 10  1  0
  2 11  1  0
 11 12  1  0
 12 13  1  0
 13 14  1  0
 14 15  2  0
 15 16  1  0
 16 17  1  0
 16 18  2  0
 18 19  1  0
 10  4  1  0
 19 14  1  0
  3 20  1  0
  3 21  1  0
  5 22  1  0
  5 23  1  0
  6 24  1  0
  6 25  1  0
  7 26  1  0
 10 27  1  0
 10 28  1  0
 11 29  1  0
 12 30  1  0
 12 31  1  0
 13 32  1  0
 13 33  1  0
 15 34  1  0
 18 35  1  0
M  END
>  <Energy>  (506) 
129.96421190307808

>  <compound_id>  (506) 
5422

>  <target_id>  (506) 
1

>  <reference_id>  (506) 
98

>  <inspiration_ids>  (506) 
[97, 98]

>  <energy_score>  (506) 
-10.356252320373528

>  <distance_score>  (506) 
2.3095759197079

>  <path>  (506) 
/opt/xchem-fragalysis-2/maxwin/BulkDock/SCRATCH/511021/C5422-P98/C5422-P98.minimised.mol

>  <scratch_subdir>  (506) 
/opt/xchem-fragalysis-2/maxwin/BulkDock/SCRATCH/511021/C5422-P98

>  <fragmenstein_runtime>  (506) 
2.5591163635253906

>  <fragmenstein_outcome>  (506) 
too moved

>  <fragmenstein_mode>  (506) 
expansion

>  <fragmenstein_error>  (506) 


$$$$
C62135-P97
     RDKit          3D

 41 42  0  0  0  0  0  0  0  0999 V2000
   18.7834    0.1166   15.2225 C   0  0  0  0  0  0  0  0  0  0  0  0
   17.6908    1.1495   15.0640 C   0  0  0  0  0  0  0  0  0  0  0  0
   17.7259    2.1901   15.5896 O   0  0  0  0  0  0  0  0  0  0  0  0
   16.6140    0.5271   14.1418 N   0  0  0  0  0  0  0  0  0  0  0  0
   15.4010    1.0956   13.5994 C   0  0  0  0  0  0  0  0  0  0  0  0
   14.2032    0.1459   13.5777 C   0  0  0  0  0  0  0  0  0  0  0  0
   13.8282   -0.4382   14.9039 C   0  0  0  0  0  0  0  0  0  0  0  0
   14.1254    0.0158   16.1681 C   0  0  0  0  0  0  0  0  0  0  0  0
   13.9036   -0.9858   17.1419 C   0  0  0  0  0  0  0  0  0  0  0  0
   13.3817   -2.1490   16.6131 C   0  0  0  0  0  0  0  0  0  0  0  0
   13.3035   -3.7736   17.3297 S   0  0  0  0  0  0  0  0  0  0  0  0
   13.0357   -3.5835   18.7305 O   0  0  0  0  0  0  0  0  0  0  0  0
   12.5320   -4.6236   16.4711 O   0  0  0  0  0  0  0  0  0  0  0  0
   14.8480   -4.3569   17.4811 N   0  0  0  0  0  0  0  0  0  0  0  0
   15.7621   -4.5737   16.3836 C   0  0  0  0  0  0  0  0  0  0  0  0
   16.9463   -5.3674   16.9213 C   0  0  0  0  0  0  0  0  0  0  0  0
   17.9033   -5.6392   15.7728 C   0  0  0  0  0  0  0  0  0  0  0  0
   18.2624   -4.4301   15.0650 N   0  0  0  0  0  0  0  0  0  0  0  0
   17.3923   -3.3983   14.8483 C   0  0  0  0  0  0  0  0  0  0  0  0
   17.6227   -2.5500   13.9869 O   0  0  0  0  0  0  0  0  0  0  0  0
   16.2425   -3.2636   15.7976 C   0  0  0  0  0  0  0  0  0  0  0  0
   12.9075   -1.8924   14.9852 S   0  0  0  0  0  0  0  0  0  0  0  0
   19.6462    0.5776   15.7128 H   0  0  0  0  0  0  0  0  0  0  0  0
   18.4233   -0.7039   15.8471 H   0  0  0  0  0  0  0  0  0  0  0  0
   19.1082   -0.2535   14.2467 H   0  0  0  0  0  0  0  0  0  0  0  0
   16.9450   -0.3732   13.7897 H   0  0  0  0  0  0  0  0  0  0  0  0
   15.1735    1.9998   14.1749 H   0  0  0  0  0  0  0  0  0  0  0  0
   15.6336    1.4153   12.5779 H   0  0  0  0  0  0  0  0  0  0  0  0
   13.3365    0.6794   13.1683 H   0  0  0  0  0  0  0  0  0  0  0  0
   14.4315   -0.6715   12.8805 H   0  0  0  0  0  0  0  0  0  0  0  0
   14.6265    0.9563   16.3723 H   0  0  0  0  0  0  0  0  0  0  0  0
   14.2321   -0.9061   18.1720 H   0  0  0  0  0  0  0  0  0  0  0  0
   15.2392   -4.0537   18.3750 H   0  0  0  0  0  0  0  0  0  0  0  0
   15.2749   -5.1877   15.6342 H   0  0  0  0  0  0  0  0  0  0  0  0
   16.6261   -6.3125   17.3732 H   0  0  0  0  0  0  0  0  0  0  0  0
   17.4609   -4.7994   17.7079 H   0  0  0  0  0  0  0  0  0  0  0  0
   18.8272   -6.0994   16.1363 H   0  0  0  0  0  0  0  0  0  0  0  0
   17.4487   -6.3203   15.0450 H   0  0  0  0  0  0  0  0  0  0  0  0
   18.9984   -4.4844   14.3693 H   0  0  0  0  0  0  0  0  0  0  0  0
   16.5386   -2.5557   16.5805 H   0  0  0  0  0  0  0  0  0  0  0  0
   15.4549   -2.8165   15.2014 H   0  0  0  0  0  0  0  0  0  0  0  0
  1  2  1  0
  2  3  2  0
  2  4  1  0
  4  5  1  0
  5  6  1  0
  6  7  1  0
  7  8  2  0
  8  9  1  0
  9 10  2  0
 10 11  1  0
 11 12  2  0
 11 13  2  0
 11 14  1  0
 14 15  1  0
 15 16  1  0
 16 17  1  0
 17 18  1  0
 18 19  1  0
 19 20  2  0
 19 21  1  0
 10 22  1  0
 22  7  1  0
 21 15  1  0
  1 23  1  0
  1 24  1  0
  1 25  1  0
  4 26  1  0
  5 27  1  0
  5 28  1  0
  6 29  1  0
  6 30  1  0
  8 31  1  0
  9 32  1  0
 14 33  1  0
 15 34  1  0
 16 35  1  0
 16 36  1  0
 17 37  1  0
 17 38  1  0
 18 39  1  0
 21 40  1  0
 21 41  1  0
M  END
>  <Energy>  (507) 
-58.078416487697545

>  <compound_id>  (507) 
62135

>  <target_id>  (507) 
1

>  <reference_id>  (507) 
97

>  <inspiration_ids>  (507) 
[97, 98]

>  <energy_score>  (507) 
-55.18997696519892

>  <distance_score>  (507) 
2.920875297515819

>  <path>  (507) 
/opt/xchem-fragalysis-2/maxwin/BulkDock/SCRATCH/511021/C62135-P97/C62135-P97.minimised.mol

>  <scratch_subdir>  (507) 
/opt/xchem-fragalysis-2/maxwin/BulkDock/SCRATCH/511021/C62135-P97

>  <fragmenstein_runtime>  (507) 
3.5657970905303955

>  <fragmenstein_outcome>  (507) 
too moved

>  <fragmenstein_mode>  (507) 
expansion

>  <fragmenstein_error>  (507) 


$$$$
C62135-P98
     RDKit          3D

 41 42  0  0  0  0  0  0  0  0999 V2000
   17.6722    4.6658   14.6630 C   0  0  0  0  0  0  0  0  0  0  0  0
   16.3747    3.9138   14.4613 C   0  0  0  0  0  0  0  0  0  0  0  0
   15.5108    4.2947   13.7774 O   0  0  0  0  0  0  0  0  0  0  0  0
   16.4917    2.6191   15.3027 N   0  0  0  0  0  0  0  0  0  0  0  0
   15.5300    1.5728   15.5497 C   0  0  0  0  0  0  0  0  0  0  0  0
   15.1992    0.7832   14.2813 C   0  0  0  0  0  0  0  0  0  0  0  0
   14.1972   -0.2968   14.5485 C   0  0  0  0  0  0  0  0  0  0  0  0
   12.8405   -0.3057   14.3075 C   0  0  0  0  0  0  0  0  0  0  0  0
   12.2112   -1.4804   14.8084 C   0  0  0  0  0  0  0  0  0  0  0  0
   13.1053   -2.3145   15.4517 C   0  0  0  0  0  0  0  0  0  0  0  0
   12.8513   -3.7524   16.4531 S   0  0  0  0  0  0  0  0  0  0  0  0
   11.4353   -3.9680   16.3468 O   0  0  0  0  0  0  0  0  0  0  0  0
   13.8328   -4.7561   16.1289 O   0  0  0  0  0  0  0  0  0  0  0  0
   13.1909   -3.3595   18.0366 N   0  0  0  0  0  0  0  0  0  0  0  0
   14.6196   -3.3633   18.3812 C   0  0  0  0  0  0  0  0  0  0  0  0
   14.9352   -4.3829   19.4600 C   0  0  0  0  0  0  0  0  0  0  0  0
   16.4470   -4.3909   19.6596 C   0  0  0  0  0  0  0  0  0  0  0  0
   17.0463   -3.0665   19.6619 N   0  0  0  0  0  0  0  0  0  0  0  0
   16.5131   -1.9755   19.0201 C   0  0  0  0  0  0  0  0  0  0  0  0
   17.2150   -1.0143   18.7201 O   0  0  0  0  0  0  0  0  0  0  0  0
   15.0272   -1.9841   18.8364 C   0  0  0  0  0  0  0  0  0  0  0  0
   14.7044   -1.7727   15.2276 S   0  0  0  0  0  0  0  0  0  0  0  0
   17.6590    5.5802   14.0626 H   0  0  0  0  0  0  0  0  0  0  0  0
   17.7843    4.9401   15.7154 H   0  0  0  0  0  0  0  0  0  0  0  0
   18.5163    4.0495   14.3414 H   0  0  0  0  0  0  0  0  0  0  0  0
   17.3486    2.6439   15.8457 H   0  0  0  0  0  0  0  0  0  0  0  0
   15.9455    0.9252   16.3289 H   0  0  0  0  0  0  0  0  0  0  0  0
   14.6265    2.0496   15.9456 H   0  0  0  0  0  0  0  0  0  0  0  0
   14.8026    1.4626   13.5160 H   0  0  0  0  0  0  0  0  0  0  0  0
   16.1167    0.3563   13.8560 H   0  0  0  0  0  0  0  0  0  0  0  0
   12.3110    0.5068   13.8224 H   0  0  0  0  0  0  0  0  0  0  0  0
   11.1454   -1.6773   14.7589 H   0  0  0  0  0  0  0  0  0  0  0  0
   12.5408   -3.8337   18.6816 H   0  0  0  0  0  0  0  0  0  0  0  0
   15.2388   -3.6104   17.5115 H   0  0  0  0  0  0  0  0  0  0  0  0
   14.5860   -5.3836   19.1854 H   0  0  0  0  0  0  0  0  0  0  0  0
   14.4323   -4.1134   20.3974 H   0  0  0  0  0  0  0  0  0  0  0  0
   16.7172   -4.8853   20.5977 H   0  0  0  0  0  0  0  0  0  0  0  0
   16.9249   -4.9439   18.8426 H   0  0  0  0  0  0  0  0  0  0  0  0
   18.0535   -3.0082   19.7674 H   0  0  0  0  0  0  0  0  0  0  0  0
   14.5580   -1.7095   19.7885 H   0  0  0  0  0  0  0  0  0  0  0  0
   14.7553   -1.2151   18.1081 H   0  0  0  0  0  0  0  0  0  0  0  0
  1  2  1  0
  2  3  2  0
  2  4  1  0
  4  5  1  0
  5  6  1  0
  6  7  1  0
  7  8  2  0
  8  9  1  0
  9 10  2  0
 10 11  1  0
 11 12  2  0
 11 13  2  0
 11 14  1  0
 14 15  1  0
 15 16  1  0
 16 17  1  0
 17 18  1  0
 18 19  1  0
 19 20  2  0
 19 21  1  0
 10 22  1  0
 22  7  1  0
 21 15  1  0
  1 23  1  0
  1 24  1  0
  1 25  1  0
  4 26  1  0
  5 27  1  0
  5 28  1  0
  6 29  1  0
  6 30  1  0
  8 31  1  0
  9 32  1  0
 14 33  1  0
 15 34  1  0
 16 35  1  0
 16 36  1  0
 17 37  1  0
 17 38  1  0
 18 39  1  0
 21 40  1  0
 21 41  1  0
M  END
>  <Energy>  (508) 
-62.696435865836904

>  <compound_id>  (508) 
62135

>  <target_id>  (508) 
1

>  <reference_id>  (508) 
98

>  <inspiration_ids>  (508) 
[97, 98]

>  <energy_score>  (508) 
-59.80799634333977

>  <distance_score>  (508) 
3.599591367750558

>  <path>  (508) 
/opt/xchem-fragalysis-2/maxwin/BulkDock/SCRATCH/511021/C62135-P98/C62135-P98.minimised.mol

>  <scratch_subdir>  (508) 
/opt/xchem-fragalysis-2/maxwin/BulkDock/SCRATCH/511021/C62135-P98

>  <fragmenstein_runtime>  (508) 
3.8327085971832275

>  <fragmenstein_outcome>  (508) 
too moved

>  <fragmenstein_mode>  (508) 
expansion

>  <fragmenstein_error>  (508) 


$$$$
C5423-P97
     RDKit          3D

 35 36  0  0  0  0  0  0  0  0999 V2000
   19.0701   -1.5435   13.6284 O   0  0  0  0  0  0  0  0  0  0  0  0
   18.4785   -1.7769   14.6075 C   0  0  0  0  0  0  0  0  0  0  0  0
   18.9953   -2.7068   15.7282 C   0  0  0  0  0  0  0  0  0  0  0  0
   18.7756   -4.1381   15.4429 N   0  0  0  0  0  0  0  0  0  0  0  0
   19.2977   -4.9730   16.5362 C   0  0  0  0  0  0  0  0  0  0  0  0
   18.5036   -4.8082   17.8418 C   0  0  0  0  0  0  0  0  0  0  0  0
   17.0798   -4.6477   17.6512 N   0  0  0  0  0  0  0  0  0  0  0  0
   16.4842   -4.7018   16.4231 C   0  0  0  0  0  0  0  0  0  0  0  0
   15.2798   -4.9393   16.3635 O   0  0  0  0  0  0  0  0  0  0  0  0
   17.3678   -4.5315   15.1790 C   0  0  0  0  0  0  0  0  0  0  0  0
   17.1071   -1.2451   15.1051 N   0  0  0  0  0  0  0  0  0  0  0  0
   16.1427   -0.3926   14.4562 C   0  0  0  0  0  0  0  0  0  0  0  0
   15.0798    0.1104   15.4383 C   0  0  0  0  0  0  0  0  0  0  0  0
   14.3366   -1.0381   16.0754 C   0  0  0  0  0  0  0  0  0  0  0  0
   14.8555   -1.6811   17.5898 S   0  0  0  0  0  0  0  0  0  0  0  0
   13.6947   -2.9311   17.5385 C   0  0  0  0  0  0  0  0  0  0  0  0
   12.9020   -2.8527   16.4204 C   0  0  0  0  0  0  0  0  0  0  0  0
   13.2668   -1.7604   15.6049 C   0  0  0  0  0  0  0  0  0  0  0  0
   12.3473   -1.4347   14.0101 Br  0  0  0  0  0  0  0  0  0  0  0  0
   18.5750   -2.3970   16.6908 H   0  0  0  0  0  0  0  0  0  0  0  0
   20.0742   -2.5158   15.7992 H   0  0  0  0  0  0  0  0  0  0  0  0
   20.3604   -4.7683   16.7141 H   0  0  0  0  0  0  0  0  0  0  0  0
   19.2512   -6.0239   16.2207 H   0  0  0  0  0  0  0  0  0  0  0  0
   18.6533   -5.6842   18.4819 H   0  0  0  0  0  0  0  0  0  0  0  0
   18.8470   -3.9326   18.4027 H   0  0  0  0  0  0  0  0  0  0  0  0
   16.4554   -4.8196   18.4291 H   0  0  0  0  0  0  0  0  0  0  0  0
   17.3927   -5.5134   14.6919 H   0  0  0  0  0  0  0  0  0  0  0  0
   16.8781   -3.8425   14.4868 H   0  0  0  0  0  0  0  0  0  0  0  0
   16.8506   -1.7202   15.9647 H   0  0  0  0  0  0  0  0  0  0  0  0
   16.6846    0.4430   14.0021 H   0  0  0  0  0  0  0  0  0  0  0  0
   15.6956   -0.9755   13.6439 H   0  0  0  0  0  0  0  0  0  0  0  0
   15.5548    0.7241   16.2142 H   0  0  0  0  0  0  0  0  0  0  0  0
   14.3757    0.7654   14.9127 H   0  0  0  0  0  0  0  0  0  0  0  0
   13.6442   -3.6721   18.3254 H   0  0  0  0  0  0  0  0  0  0  0  0
   12.1156   -3.5676   16.2076 H   0  0  0  0  0  0  0  0  0  0  0  0
  1  2  2  0
  2  3  1  0
  3  4  1  0
  4  5  1  0
  5  6  1  0
  6  7  1  0
  7  8  1  0
  8  9  2  0
  8 10  1  0
  2 11  1  0
 11 12  1  0
 12 13  1  0
 13 14  1  0
 14 15  1  0
 15 16  1  0
 16 17  2  0
 17 18  1  0
 18 19  1  0
 10  4  1  0
 18 14  2  0
  3 20  1  0
  3 21  1  0
  5 22  1  0
  5 23  1  0
  6 24  1  0
  6 25  1  0
  7 26  1  0
 10 27  1  0
 10 28  1  0
 11 29  1  0
 12 30  1  0
 12 31  1  0
 13 32  1  0
 13 33  1  0
 16 34  1  0
 17 35  1  0
M  END
>  <Energy>  (509) 
112.61208818719996

>  <compound_id>  (509) 
5423

>  <target_id>  (509) 
1

>  <reference_id>  (509) 
97

>  <inspiration_ids>  (509) 
[97, 98]

>  <energy_score>  (509) 
-20.24124026947439

>  <distance_score>  (509) 
2.00180763383628

>  <path>  (509) 
/opt/xchem-fragalysis-2/maxwin/BulkDock/SCRATCH/511021/C5423-P97/C5423-P97.minimised.mol

>  <scratch_subdir>  (509) 
/opt/xchem-fragalysis-2/maxwin/BulkDock/SCRATCH/511021/C5423-P97

>  <fragmenstein_runtime>  (509) 
2.4141557216644287

>  <fragmenstein_outcome>  (509) 
too moved

>  <fragmenstein_mode>  (509) 
expansion

>  <fragmenstein_error>  (509) 


$$$$
C5423-P98
     RDKit          3D

 35 36  0  0  0  0  0  0  0  0999 V2000
   17.6314   -0.8148   12.8537 O   0  0  0  0  0  0  0  0  0  0  0  0
   17.7224   -1.2030   13.9505 C   0  0  0  0  0  0  0  0  0  0  0  0
   18.5057   -2.4795   14.3537 C   0  0  0  0  0  0  0  0  0  0  0  0
   17.9552   -3.0589   15.6053 N   0  0  0  0  0  0  0  0  0  0  0  0
   18.9481   -3.8725   16.3156 C   0  0  0  0  0  0  0  0  0  0  0  0
   18.3570   -4.2593   17.6755 C   0  0  0  0  0  0  0  0  0  0  0  0
   17.0465   -4.8530   17.5791 N   0  0  0  0  0  0  0  0  0  0  0  0
   16.1894   -4.6026   16.5427 C   0  0  0  0  0  0  0  0  0  0  0  0
   15.0421   -5.0393   16.6103 O   0  0  0  0  0  0  0  0  0  0  0  0
   16.7650   -3.9056   15.2995 C   0  0  0  0  0  0  0  0  0  0  0  0
   17.2087   -0.5908   15.2778 N   0  0  0  0  0  0  0  0  0  0  0  0
   16.3982    0.5720   15.5173 C   0  0  0  0  0  0  0  0  0  0  0  0
   14.9142    0.3199   15.2479 C   0  0  0  0  0  0  0  0  0  0  0  0
   14.3018   -0.8733   15.9493 C   0  0  0  0  0  0  0  0  0  0  0  0
   14.7867   -1.3632   17.5314 S   0  0  0  0  0  0  0  0  0  0  0  0
   13.7220   -2.6931   17.5352 C   0  0  0  0  0  0  0  0  0  0  0  0
   12.9765   -2.7593   16.3852 C   0  0  0  0  0  0  0  0  0  0  0  0
   13.3073   -1.7136   15.4962 C   0  0  0  0  0  0  0  0  0  0  0  0
   12.4139   -1.5838   13.8508 Br  0  0  0  0  0  0  0  0  0  0  0  0
   19.5406   -2.1493   14.5057 H   0  0  0  0  0  0  0  0  0  0  0  0
   18.4901   -3.1978   13.5264 H   0  0  0  0  0  0  0  0  0  0  0  0
   19.8676   -3.3019   16.4903 H   0  0  0  0  0  0  0  0  0  0  0  0
   19.2133   -4.7677   15.7389 H   0  0  0  0  0  0  0  0  0  0  0  0
   19.0090   -4.9731   18.1886 H   0  0  0  0  0  0  0  0  0  0  0  0
   18.2588   -3.3737   18.3141 H   0  0  0  0  0  0  0  0  0  0  0  0
   16.6191   -5.2690   18.3964 H   0  0  0  0  0  0  0  0  0  0  0  0
   17.0364   -4.6975   14.5949 H   0  0  0  0  0  0  0  0  0  0  0  0
   15.9750   -3.2868   14.8661 H   0  0  0  0  0  0  0  0  0  0  0  0
   17.3915   -1.2387   16.0453 H   0  0  0  0  0  0  0  0  0  0  0  0
   16.5704    0.8883   16.5509 H   0  0  0  0  0  0  0  0  0  0  0  0
   16.7542    1.3670   14.8537 H   0  0  0  0  0  0  0  0  0  0  0  0
   14.3433    1.2153   15.5230 H   0  0  0  0  0  0  0  0  0  0  0  0
   14.7928    0.1921   14.1651 H   0  0  0  0  0  0  0  0  0  0  0  0
   13.6868   -3.3728   18.3771 H   0  0  0  0  0  0  0  0  0  0  0  0
   12.2483   -3.5416   16.2035 H   0  0  0  0  0  0  0  0  0  0  0  0
  1  2  2  0
  2  3  1  0
  3  4  1  0
  4  5  1  0
  5  6  1  0
  6  7  1  0
  7  8  1  0
  8  9  2  0
  8 10  1  0
  2 11  1  0
 11 12  1  0
 12 13  1  0
 13 14  1  0
 14 15  1  0
 15 16  1  0
 16 17  2  0
 17 18  1  0
 18 19  1  0
 10  4  1  0
 18 14  2  0
  3 20  1  0
  3 21  1  0
  5 22  1  0
  5 23  1  0
  6 24  1  0
  6 25  1  0
  7 26  1  0
 10 27  1  0
 10 28  1  0
 11 29  1  0
 12 30  1  0
 12 31  1  0
 13 32  1  0
 13 33  1  0
 16 34  1  0
 17 35  1  0
M  END
>  <Energy>  (510) 
101.24099619377758

>  <compound_id>  (510) 
5423

>  <target_id>  (510) 
1

>  <reference_id>  (510) 
98

>  <inspiration_ids>  (510) 
[97, 98]

>  <energy_score>  (510) 
-31.612332262896672

>  <distance_score>  (510) 
1.808465656675931

>  <path>  (510) 
/opt/xchem-fragalysis-2/maxwin/BulkDock/SCRATCH/511021/C5423-P98/C5423-P98.minimised.mol

>  <scratch_subdir>  (510) 
/opt/xchem-fragalysis-2/maxwin/BulkDock/SCRATCH/511021/C5423-P98

>  <fragmenstein_runtime>  (510) 
1.9912903308868408

>  <fragmenstein_outcome>  (510) 
too moved

>  <fragmenstein_mode>  (510) 
expansion

>  <fragmenstein_error>  (510) 


$$$$
C62136-P97
     RDKit          3D

 44 46  0  0  0  0  0  0  0  0999 V2000
   17.2425   -0.2129   14.9712 O   0  0  0  0  0  0  0  0  0  0  0  0
   16.3180   -0.7395   14.4919 C   0  0  0  0  0  0  0  0  0  0  0  0
   15.0911    0.0278   14.0058 C   0  0  0  0  0  0  0  0  0  0  0  0
   14.0360    0.2476   15.1016 C   0  0  0  0  0  0  0  0  0  0  0  0
   13.0252    1.3159   14.6524 C   0  0  0  0  0  0  0  0  0  0  0  0
   12.0845    0.7700   13.5873 C   0  0  0  0  0  0  0  0  0  0  0  0
   11.3646   -0.3734   14.1048 N   0  0  0  0  0  0  0  0  0  0  0  0
   12.0592   -1.3207   14.8547 C   0  0  0  0  0  0  0  0  0  0  0  0
   11.4256   -2.5286   15.1608 C   0  0  0  0  0  0  0  0  0  0  0  0
   11.9873   -3.4231   16.0602 C   0  0  0  0  0  0  0  0  0  0  0  0
   13.1652   -3.0964   16.7044 C   0  0  0  0  0  0  0  0  0  0  0  0
   13.8221   -1.9081   16.4010 C   0  0  0  0  0  0  0  0  0  0  0  0
   13.2889   -1.0217   15.4597 C   0  0  0  0  0  0  0  0  0  0  0  0
   16.0890   -2.2253   14.1245 N   0  0  0  0  0  0  0  0  0  0  0  0
   16.9120   -3.3841   14.3575 C   0  0  0  0  0  0  0  0  0  0  0  0
   17.7828   -3.3690   15.5931 C   0  0  0  0  0  0  0  0  0  0  0  0
   17.0470   -3.3131   16.8461 N   0  0  0  0  0  0  0  0  0  0  0  0
   17.5782   -2.5636   17.9535 C   0  0  0  0  0  0  0  0  0  0  0  0
   16.5540   -2.7830   19.0488 C   0  0  0  0  0  0  0  0  0  0  0  0
   15.9012   -3.9915   18.6490 N   0  0  0  0  0  0  0  0  0  0  0  0
   16.1532   -4.2793   17.3179 C   0  0  0  0  0  0  0  0  0  0  0  0
   15.6434   -5.2201   16.7394 O   0  0  0  0  0  0  0  0  0  0  0  0
   15.4673    0.9976   13.6529 H   0  0  0  0  0  0  0  0  0  0  0  0
   14.6675   -0.4594   13.1200 H   0  0  0  0  0  0  0  0  0  0  0  0
   14.5341    0.6273   16.0042 H   0  0  0  0  0  0  0  0  0  0  0  0
   12.4345    1.6393   15.5209 H   0  0  0  0  0  0  0  0  0  0  0  0
   13.5429    2.2066   14.2778 H   0  0  0  0  0  0  0  0  0  0  0  0
   11.3611    1.5431   13.3060 H   0  0  0  0  0  0  0  0  0  0  0  0
   12.6302    0.4993   12.6781 H   0  0  0  0  0  0  0  0  0  0  0  0
   10.6580   -0.7886   13.4838 H   0  0  0  0  0  0  0  0  0  0  0  0
   10.4687   -2.7699   14.7099 H   0  0  0  0  0  0  0  0  0  0  0  0
   11.4936   -4.3607   16.2917 H   0  0  0  0  0  0  0  0  0  0  0  0
   13.5574   -3.7836   17.4430 H   0  0  0  0  0  0  0  0  0  0  0  0
   14.7584   -1.6743   16.8966 H   0  0  0  0  0  0  0  0  0  0  0  0
   15.2001   -2.3231   13.6469 H   0  0  0  0  0  0  0  0  0  0  0  0
   17.5384   -3.5061   13.4690 H   0  0  0  0  0  0  0  0  0  0  0  0
   16.2370   -4.2276   14.4401 H   0  0  0  0  0  0  0  0  0  0  0  0
   18.3904   -4.2808   15.6220 H   0  0  0  0  0  0  0  0  0  0  0  0
   18.4671   -2.5143   15.5566 H   0  0  0  0  0  0  0  0  0  0  0  0
   18.5481   -2.9930   18.2286 H   0  0  0  0  0  0  0  0  0  0  0  0
   17.6999   -1.5082   17.6950 H   0  0  0  0  0  0  0  0  0  0  0  0
   17.0015   -2.8982   20.0390 H   0  0  0  0  0  0  0  0  0  0  0  0
   15.8054   -1.9854   19.0778 H   0  0  0  0  0  0  0  0  0  0  0  0
   15.2020   -4.4989   19.1722 H   0  0  0  0  0  0  0  0  0  0  0  0
  1  2  2  0
  2  3  1  0
  3  4  1  0
  4  5  1  0
  5  6  1  0
  6  7  1  0
  7  8  1  0
  8  9  2  0
  9 10  1  0
 10 11  2  0
 11 12  1  0
 12 13  2  0
  2 14  1  0
 14 15  1  0
 15 16  1  0
 16 17  1  0
 17 18  1  0
 18 19  1  0
 19 20  1  0
 20 21  1  0
 21 22  2  0
 13  4  1  0
 21 17  1  0
 13  8  1  0
  3 23  1  0
  3 24  1  0
  4 25  1  0
  5 26  1  0
  5 27  1  0
  6 28  1  0
  6 29  1  0
  7 30  1  0
  9 31  1  0
 10 32  1  0
 11 33  1  0
 12 34  1  0
 14 35  1  0
 15 36  1  0
 15 37  1  0
 16 38  1  0
 16 39  1  0
 18 40  1  0
 18 41  1  0
 19 42  1  0
 19 43  1  0
 20 44  1  0
M  END
>  <Energy>  (511) 
-39.682628182697492

>  <compound_id>  (511) 
62136

>  <target_id>  (511) 
1

>  <reference_id>  (511) 
97

>  <inspiration_ids>  (511) 
[97, 98]

>  <energy_score>  (511) 
-21.21734104169721

>  <distance_score>  (511) 
1.7286051507334632

>  <path>  (511) 
/opt/xchem-fragalysis-2/maxwin/BulkDock/SCRATCH/511021/C62136-P97/C62136-P97.minimised.mol

>  <scratch_subdir>  (511) 
/opt/xchem-fragalysis-2/maxwin/BulkDock/SCRATCH/511021/C62136-P97

>  <fragmenstein_runtime>  (511) 
1.5291094779968262

>  <fragmenstein_outcome>  (511) 
too moved

>  <fragmenstein_mode>  (511) 
expansion

>  <fragmenstein_error>  (511) 


$$$$
C62136-P98
     RDKit          3D

 44 46  0  0  0  0  0  0  0  0999 V2000
   17.2536   -0.3363   15.0356 O   0  0  0  0  0  0  0  0  0  0  0  0
   16.3616   -0.8576   14.4928 C   0  0  0  0  0  0  0  0  0  0  0  0
   15.1727   -0.0869   13.9243 C   0  0  0  0  0  0  0  0  0  0  0  0
   14.0840    0.2091   14.9689 C   0  0  0  0  0  0  0  0  0  0  0  0
   13.1072    1.2655   14.4252 C   0  0  0  0  0  0  0  0  0  0  0  0
   12.1817    0.6706   13.3726 C   0  0  0  0  0  0  0  0  0  0  0  0
   11.4208   -0.4161   13.9498 N   0  0  0  0  0  0  0  0  0  0  0  0
   12.0851   -1.3385   14.7555 C   0  0  0  0  0  0  0  0  0  0  0  0
   11.4304   -2.5247   15.0980 C   0  0  0  0  0  0  0  0  0  0  0  0
   11.9706   -3.3930   16.0354 C   0  0  0  0  0  0  0  0  0  0  0  0
   13.1385   -3.0537   16.6910 C   0  0  0  0  0  0  0  0  0  0  0  0
   13.8137   -1.8848   16.3562 C   0  0  0  0  0  0  0  0  0  0  0  0
   13.3090   -1.0313   15.3695 C   0  0  0  0  0  0  0  0  0  0  0  0
   16.1462   -2.3441   14.1174 N   0  0  0  0  0  0  0  0  0  0  0  0
   16.9404   -3.5102   14.4165 C   0  0  0  0  0  0  0  0  0  0  0  0
   17.7776   -3.4632   15.6738 C   0  0  0  0  0  0  0  0  0  0  0  0
   17.0155   -3.3358   16.9053 N   0  0  0  0  0  0  0  0  0  0  0  0
   17.5415   -2.5453   17.9867 C   0  0  0  0  0  0  0  0  0  0  0  0
   16.4947   -2.6938   19.0721 C   0  0  0  0  0  0  0  0  0  0  0  0
   15.8250   -3.9068   18.7166 N   0  0  0  0  0  0  0  0  0  0  0  0
   16.0940   -4.2607   17.4052 C   0  0  0  0  0  0  0  0  0  0  0  0
   15.5731   -5.2175   16.8639 O   0  0  0  0  0  0  0  0  0  0  0  0
   15.5854    0.8555   13.5395 H   0  0  0  0  0  0  0  0  0  0  0  0
   14.7680   -0.6070   13.0484 H   0  0  0  0  0  0  0  0  0  0  0  0
   14.5570    0.6308   15.8662 H   0  0  0  0  0  0  0  0  0  0  0  0
   12.5016    1.6549   15.2556 H   0  0  0  0  0  0  0  0  0  0  0  0
   13.6525    2.1205   14.0089 H   0  0  0  0  0  0  0  0  0  0  0  0
   11.4856    1.4395   13.0202 H   0  0  0  0  0  0  0  0  0  0  0  0
   12.7407    0.3217   12.4982 H   0  0  0  0  0  0  0  0  0  0  0  0
   10.7020   -0.8382   13.3490 H   0  0  0  0  0  0  0  0  0  0  0  0
   10.4794   -2.7708   14.6380 H   0  0  0  0  0  0  0  0  0  0  0  0
   11.4726   -4.3227   16.2842 H   0  0  0  0  0  0  0  0  0  0  0  0
   13.5099   -3.7185   17.4607 H   0  0  0  0  0  0  0  0  0  0  0  0
   14.7433   -1.6423   16.8605 H   0  0  0  0  0  0  0  0  0  0  0  0
   15.2195   -2.4633   13.7241 H   0  0  0  0  0  0  0  0  0  0  0  0
   17.5923   -3.6709   13.5529 H   0  0  0  0  0  0  0  0  0  0  0  0
   16.2537   -4.3462   14.5035 H   0  0  0  0  0  0  0  0  0  0  0  0
   18.3621   -4.3869   15.7564 H   0  0  0  0  0  0  0  0  0  0  0  0
   18.4848   -2.6282   15.6179 H   0  0  0  0  0  0  0  0  0  0  0  0
   18.4977   -2.9797   18.2995 H   0  0  0  0  0  0  0  0  0  0  0  0
   17.6892   -1.5054   17.6830 H   0  0  0  0  0  0  0  0  0  0  0  0
   16.9227   -2.7715   20.0745 H   0  0  0  0  0  0  0  0  0  0  0  0
   15.7620   -1.8814   19.0510 H   0  0  0  0  0  0  0  0  0  0  0  0
   15.1017   -4.3716   19.2476 H   0  0  0  0  0  0  0  0  0  0  0  0
  1  2  2  0
  2  3  1  0
  3  4  1  0
  4  5  1  0
  5  6  1  0
  6  7  1  0
  7  8  1  0
  8  9  2  0
  9 10  1  0
 10 11  2  0
 11 12  1  0
 12 13  2  0
  2 14  1  0
 14 15  1  0
 15 16  1  0
 16 17  1  0
 17 18  1  0
 18 19  1  0
 19 20  1  0
 20 21  1  0
 21 22  2  0
 13  4  1  0
 21 17  1  0
 13  8  1  0
  3 23  1  0
  3 24  1  0
  4 25  1  0
  5 26  1  0
  5 27  1  0
  6 28  1  0
  6 29  1  0
  7 30  1  0
  9 31  1  0
 10 32  1  0
 11 33  1  0
 12 34  1  0
 14 35  1  0
 15 36  1  0
 15 37  1  0
 16 38  1  0
 16 39  1  0
 18 40  1  0
 18 41  1  0
 19 42  1  0
 19 43  1  0
 20 44  1  0
M  END
>  <Energy>  (512) 
-39.994480060336123

>  <compound_id>  (512) 
62136

>  <target_id>  (512) 
1

>  <reference_id>  (512) 
98

>  <inspiration_ids>  (512) 
[97, 98]

>  <energy_score>  (512) 
-21.52919291933477

>  <distance_score>  (512) 
1.7405966995917304

>  <path>  (512) 
/opt/xchem-fragalysis-2/maxwin/BulkDock/SCRATCH/511021/C62136-P98/C62136-P98.minimised.mol

>  <scratch_subdir>  (512) 
/opt/xchem-fragalysis-2/maxwin/BulkDock/SCRATCH/511021/C62136-P98

>  <fragmenstein_runtime>  (512) 
1.4894077777862549

>  <fragmenstein_outcome>  (512) 
too moved

>  <fragmenstein_mode>  (512) 
expansion

>  <fragmenstein_error>  (512) 


$$$$
C62137-P97
     RDKit          3D

 36 37  0  0  0  0  0  0  0  0999 V2000
   12.1689   -3.4686   15.5359 N   0  0  0  0  0  0  0  0  0  0  0  0
   12.7798   -3.9252   16.7875 C   0  0  0  0  0  0  0  0  0  0  0  0
   14.2568   -3.9592   16.7192 C   0  0  0  0  0  0  0  0  0  0  0  0
   15.1031   -3.2544   15.9049 C   0  0  0  0  0  0  0  0  0  0  0  0
   16.3502   -3.6269   16.2789 N   0  0  0  0  0  0  0  0  0  0  0  0
   17.6055   -3.2615   15.6602 C   0  0  0  0  0  0  0  0  0  0  0  0
   17.7670   -1.7471   15.5932 C   0  0  0  0  0  0  0  0  0  0  0  0
   18.3601   -1.1505   16.4049 O   0  0  0  0  0  0  0  0  0  0  0  0
   16.9583   -1.2432   14.3615 N   0  0  0  0  0  0  0  0  0  0  0  0
   16.6386    0.0963   13.9370 C   0  0  0  0  0  0  0  0  0  0  0  0
   15.5363    0.7065   14.8149 C   0  0  0  0  0  0  0  0  0  0  0  0
   14.2236    0.1018   14.6166 N   0  0  0  0  0  0  0  0  0  0  0  0
   13.4041    0.3800   13.4536 C   0  0  0  0  0  0  0  0  0  0  0  0
   12.0858   -0.3116   13.7717 C   0  0  0  0  0  0  0  0  0  0  0  0
   12.1351   -0.4731   15.1952 N   0  0  0  0  0  0  0  0  0  0  0  0
   13.4277   -0.3373   15.6706 C   0  0  0  0  0  0  0  0  0  0  0  0
   13.7615   -0.5971   16.8110 O   0  0  0  0  0  0  0  0  0  0  0  0
   16.3031   -4.5467   17.2538 N   0  0  0  0  0  0  0  0  0  0  0  0
   15.0231   -4.7515   17.5420 N   0  0  0  0  0  0  0  0  0  0  0  0
   11.1594   -3.5597   15.6080 H   0  0  0  0  0  0  0  0  0  0  0  0
   12.3883   -2.4862   15.4149 H   0  0  0  0  0  0  0  0  0  0  0  0
   12.4067   -4.9258   17.0035 H   0  0  0  0  0  0  0  0  0  0  0  0
   12.4936   -3.2629   17.6005 H   0  0  0  0  0  0  0  0  0  0  0  0
   14.8996   -2.5523   15.1175 H   0  0  0  0  0  0  0  0  0  0  0  0
   18.4270   -3.6799   16.2517 H   0  0  0  0  0  0  0  0  0  0  0  0
   17.6395   -3.7141   14.6644 H   0  0  0  0  0  0  0  0  0  0  0  0
   16.6369   -2.0382   13.8180 H   0  0  0  0  0  0  0  0  0  0  0  0
   16.3481    0.0599   12.8833 H   0  0  0  0  0  0  0  0  0  0  0  0
   17.5504    0.6929   14.0390 H   0  0  0  0  0  0  0  0  0  0  0  0
   15.8114    0.6173   15.8723 H   0  0  0  0  0  0  0  0  0  0  0  0
   15.4358    1.7756   14.5960 H   0  0  0  0  0  0  0  0  0  0  0  0
   13.8743    0.0034   12.5417 H   0  0  0  0  0  0  0  0  0  0  0  0
   13.2668    1.4644   13.3809 H   0  0  0  0  0  0  0  0  0  0  0  0
   12.0448   -1.3120   13.3328 H   0  0  0  0  0  0  0  0  0  0  0  0
   11.2098    0.2702   13.4768 H   0  0  0  0  0  0  0  0  0  0  0  0
   11.3786   -0.8091   15.7726 H   0  0  0  0  0  0  0  0  0  0  0  0
  1  2  1  0
  2  3  1  0
  3  4  2  0
  4  5  1  0
  5  6  1  0
  6  7  1  0
  7  8  2  0
  7  9  1  0
  9 10  1  0
 10 11  1  0
 11 12  1  0
 12 13  1  0
 13 14  1  0
 14 15  1  0
 15 16  1  0
 16 17  2  0
  5 18  1  0
 18 19  2  0
 19  3  1  0
 16 12  1  0
  1 20  1  0
  1 21  1  0
  2 22  1  0
  2 23  1  0
  4 24  1  0
  6 25  1  0
  6 26  1  0
  9 27  1  0
 10 28  1  0
 10 29  1  0
 11 30  1  0
 11 31  1  0
 13 32  1  0
 13 33  1  0
 14 34  1  0
 14 35  1  0
 15 36  1  0
M  END
>  <Energy>  (513) 
-20.826906523751504

>  <compound_id>  (513) 
62137

>  <target_id>  (513) 
1

>  <reference_id>  (513) 
97

>  <inspiration_ids>  (513) 
[97, 98]

>  <energy_score>  (513) 
-16.288290495924226

>  <distance_score>  (513) 
2.123226582100443

>  <path>  (513) 
/opt/xchem-fragalysis-2/maxwin/BulkDock/SCRATCH/511021/C62137-P97/C62137-P97.minimised.mol

>  <scratch_subdir>  (513) 
/opt/xchem-fragalysis-2/maxwin/BulkDock/SCRATCH/511021/C62137-P97

>  <fragmenstein_runtime>  (513) 
2.093155860900879

>  <fragmenstein_outcome>  (513) 
too moved

>  <fragmenstein_mode>  (513) 
expansion

>  <fragmenstein_error>  (513) 


$$$$
C62137-P98
     RDKit          3D

 36 37  0  0  0  0  0  0  0  0999 V2000
   11.9608   -3.3478   15.6075 N   0  0  0  0  0  0  0  0  0  0  0  0
   12.7001   -3.8062   16.7966 C   0  0  0  0  0  0  0  0  0  0  0  0
   14.1679   -3.8887   16.6288 C   0  0  0  0  0  0  0  0  0  0  0  0
   15.0136   -3.2296   15.7723 C   0  0  0  0  0  0  0  0  0  0  0  0
   16.2590   -3.6177   16.1400 N   0  0  0  0  0  0  0  0  0  0  0  0
   17.5532   -3.1769   15.6657 C   0  0  0  0  0  0  0  0  0  0  0  0
   17.5084   -2.1429   14.5491 C   0  0  0  0  0  0  0  0  0  0  0  0
   17.9294   -2.3737   13.4834 O   0  0  0  0  0  0  0  0  0  0  0  0
   16.9232   -0.8281   15.1378 N   0  0  0  0  0  0  0  0  0  0  0  0
   16.6506    0.4393   14.5075 C   0  0  0  0  0  0  0  0  0  0  0  0
   15.4058    1.1330   15.0594 C   0  0  0  0  0  0  0  0  0  0  0  0
   14.1683    0.4327   14.7780 N   0  0  0  0  0  0  0  0  0  0  0  0
   13.4569    0.5344   13.5240 C   0  0  0  0  0  0  0  0  0  0  0  0
   12.3180   -0.4611   13.6830 C   0  0  0  0  0  0  0  0  0  0  0  0
   12.2782   -0.7184   15.0969 N   0  0  0  0  0  0  0  0  0  0  0  0
   13.4662   -0.3318   15.6935 C   0  0  0  0  0  0  0  0  0  0  0  0
   13.8284   -0.6487   16.8133 O   0  0  0  0  0  0  0  0  0  0  0  0
   16.2075   -4.5105   17.1414 N   0  0  0  0  0  0  0  0  0  0  0  0
   14.9309   -4.6970   17.4406 N   0  0  0  0  0  0  0  0  0  0  0  0
   12.4373   -3.6942   14.7789 H   0  0  0  0  0  0  0  0  0  0  0  0
   11.0669   -3.8495   15.6077 H   0  0  0  0  0  0  0  0  0  0  0  0
   12.3300   -4.7926   17.0626 H   0  0  0  0  0  0  0  0  0  0  0  0
   12.4965   -3.1310   17.6245 H   0  0  0  0  0  0  0  0  0  0  0  0
   14.8258   -2.5218   14.9815 H   0  0  0  0  0  0  0  0  0  0  0  0
   18.1062   -2.7693   16.5188 H   0  0  0  0  0  0  0  0  0  0  0  0
   18.0795   -4.0665   15.3015 H   0  0  0  0  0  0  0  0  0  0  0  0
   16.7256   -0.9569   16.1288 H   0  0  0  0  0  0  0  0  0  0  0  0
   17.5295    1.0685   14.6805 H   0  0  0  0  0  0  0  0  0  0  0  0
   16.5685    0.2682   13.4293 H   0  0  0  0  0  0  0  0  0  0  0  0
   15.5021    1.2390   16.1464 H   0  0  0  0  0  0  0  0  0  0  0  0
   15.3195    2.1397   14.6359 H   0  0  0  0  0  0  0  0  0  0  0  0
   14.1105    0.2900   12.6822 H   0  0  0  0  0  0  0  0  0  0  0  0
   13.0853    1.5589   13.4204 H   0  0  0  0  0  0  0  0  0  0  0  0
   12.5400   -1.4034   13.1717 H   0  0  0  0  0  0  0  0  0  0  0  0
   11.3578   -0.0707   13.3401 H   0  0  0  0  0  0  0  0  0  0  0  0
   11.8977   -1.5971   15.4552 H   0  0  0  0  0  0  0  0  0  0  0  0
  1  2  1  0
  2  3  1  0
  3  4  2  0
  4  5  1  0
  5  6  1  0
  6  7  1  0
  7  8  2  0
  7  9  1  0
  9 10  1  0
 10 11  1  0
 11 12  1  0
 12 13  1  0
 13 14  1  0
 14 15  1  0
 15 16  1  0
 16 17  2  0
  5 18  1  0
 18 19  2  0
 19  3  1  0
 16 12  1  0
  1 20  1  0
  1 21  1  0
  2 22  1  0
  2 23  1  0
  4 24  1  0
  6 25  1  0
  6 26  1  0
  9 27  1  0
 10 28  1  0
 10 29  1  0
 11 30  1  0
 11 31  1  0
 13 32  1  0
 13 33  1  0
 14 34  1  0
 14 35  1  0
 15 36  1  0
M  END
>  <Energy>  (514) 
-26.318774147044202

>  <compound_id>  (514) 
62137

>  <target_id>  (514) 
1

>  <reference_id>  (514) 
98

>  <inspiration_ids>  (514) 
[97, 98]

>  <energy_score>  (514) 
-21.78015811921676

>  <distance_score>  (514) 
1.7842908816770284

>  <path>  (514) 
/opt/xchem-fragalysis-2/maxwin/BulkDock/SCRATCH/511021/C62137-P98/C62137-P98.minimised.mol

>  <scratch_subdir>  (514) 
/opt/xchem-fragalysis-2/maxwin/BulkDock/SCRATCH/511021/C62137-P98

>  <fragmenstein_runtime>  (514) 
1.7515983581542969

>  <fragmenstein_outcome>  (514) 
too moved

>  <fragmenstein_mode>  (514) 
expansion

>  <fragmenstein_error>  (514) 


$$$$
C62138-P97
     RDKit          3D

 37 38  0  0  0  0  0  0  0  0999 V2000
   14.5238   -5.2867   19.2773 N   0  0  0  0  0  0  0  0  0  0  0  0
   13.7701   -4.4353   18.3509 C   0  0  0  0  0  0  0  0  0  0  0  0
   14.7172   -3.7635   17.4440 C   0  0  0  0  0  0  0  0  0  0  0  0
   15.4192   -4.2780   16.3780 C   0  0  0  0  0  0  0  0  0  0  0  0
   16.1808   -3.2380   15.9518 N   0  0  0  0  0  0  0  0  0  0  0  0
   17.2463   -3.2304   14.9618 C   0  0  0  0  0  0  0  0  0  0  0  0
   16.9938   -2.2928   13.7769 C   0  0  0  0  0  0  0  0  0  0  0  0
   17.2120   -2.6175   12.6771 O   0  0  0  0  0  0  0  0  0  0  0  0
   16.4381   -0.9597   14.3386 N   0  0  0  0  0  0  0  0  0  0  0  0
   15.9506    0.2050   13.6601 C   0  0  0  0  0  0  0  0  0  0  0  0
   14.7253    0.7387   14.3958 C   0  0  0  0  0  0  0  0  0  0  0  0
   13.4599   -0.1064   14.1902 C   0  0  0  0  0  0  0  0  0  0  0  0
   12.3099    0.3922   15.0506 C   0  0  0  0  0  0  0  0  0  0  0  0
   11.4151   -0.8291   15.2050 C   0  0  0  0  0  0  0  0  0  0  0  0
   12.3924   -1.9656   15.1765 C   0  0  0  0  0  0  0  0  0  0  0  0
   12.1989   -3.1018   15.5721 O   0  0  0  0  0  0  0  0  0  0  0  0
   13.5536   -1.4752   14.6061 N   0  0  0  0  0  0  0  0  0  0  0  0
   15.9857   -2.1508   16.7252 N   0  0  0  0  0  0  0  0  0  0  0  0
   15.0666   -2.4557   17.6241 N   0  0  0  0  0  0  0  0  0  0  0  0
   15.2892   -5.7432   18.7822 H   0  0  0  0  0  0  0  0  0  0  0  0
   14.9826   -4.6659   19.9468 H   0  0  0  0  0  0  0  0  0  0  0  0
   13.0569   -5.0116   17.7626 H   0  0  0  0  0  0  0  0  0  0  0  0
   13.2004   -3.7074   18.9308 H   0  0  0  0  0  0  0  0  0  0  0  0
   15.4626   -5.2582   15.9328 H   0  0  0  0  0  0  0  0  0  0  0  0
   18.1705   -2.9317   15.4674 H   0  0  0  0  0  0  0  0  0  0  0  0
   17.3627   -4.2543   14.5935 H   0  0  0  0  0  0  0  0  0  0  0  0
   16.4514   -0.9876   15.3614 H   0  0  0  0  0  0  0  0  0  0  0  0
   15.7343   -0.0461   12.6175 H   0  0  0  0  0  0  0  0  0  0  0  0
   16.7555    0.9461   13.6804 H   0  0  0  0  0  0  0  0  0  0  0  0
   14.5187    1.7542   14.0354 H   0  0  0  0  0  0  0  0  0  0  0  0
   14.9516    0.8237   15.4670 H   0  0  0  0  0  0  0  0  0  0  0  0
   13.1756   -0.1109   13.1310 H   0  0  0  0  0  0  0  0  0  0  0  0
   11.7848    1.2405   14.6010 H   0  0  0  0  0  0  0  0  0  0  0  0
   12.6643    0.7058   16.0411 H   0  0  0  0  0  0  0  0  0  0  0  0
   10.8561   -0.7988   16.1351 H   0  0  0  0  0  0  0  0  0  0  0  0
   10.7303   -0.9157   14.3670 H   0  0  0  0  0  0  0  0  0  0  0  0
   14.3141   -2.0958   14.3728 H   0  0  0  0  0  0  0  0  0  0  0  0
  1  2  1  0
  2  3  1  0
  3  4  2  0
  4  5  1  0
  5  6  1  0
  6  7  1  0
  7  8  2  0
  7  9  1  0
  9 10  1  0
 10 11  1  0
 11 12  1  0
 12 13  1  0
 13 14  1  0
 14 15  1  0
 15 16  2  0
 15 17  1  0
  5 18  1  0
 18 19  2  0
 19  3  1  0
 17 12  1  0
  1 20  1  0
  1 21  1  0
  2 22  1  0
  2 23  1  0
  4 24  1  0
  6 25  1  0
  6 26  1  0
  9 27  1  0
 10 28  1  0
 10 29  1  0
 11 30  1  0
 11 31  1  0
 12 32  1  0
 13 33  1  0
 13 34  1  0
 14 35  1  0
 14 36  1  0
 17 37  1  0
M  END
>  <Energy>  (515) 
-4.3268418125039574

>  <compound_id>  (515) 
62138

>  <target_id>  (515) 
1

>  <reference_id>  (515) 
97

>  <inspiration_ids>  (515) 
[97, 98]

>  <energy_score>  (515) 
-5.969047392128175

>  <distance_score>  (515) 
1.9384082674767373

>  <path>  (515) 
/opt/xchem-fragalysis-2/maxwin/BulkDock/SCRATCH/511021/C62138-P97/C62138-P97.minimised.mol

>  <scratch_subdir>  (515) 
/opt/xchem-fragalysis-2/maxwin/BulkDock/SCRATCH/511021/C62138-P97

>  <fragmenstein_runtime>  (515) 
2.847658157348633

>  <fragmenstein_outcome>  (515) 
too moved

>  <fragmenstein_mode>  (515) 
expansion

>  <fragmenstein_error>  (515) 


$$$$
C62138-P98
     RDKit          3D

 37 38  0  0  0  0  0  0  0  0999 V2000
   14.6070   -5.2800   19.4773 N   0  0  0  0  0  0  0  0  0  0  0  0
   13.8397   -4.4959   18.5068 C   0  0  0  0  0  0  0  0  0  0  0  0
   14.7779   -3.8331   17.5839 C   0  0  0  0  0  0  0  0  0  0  0  0
   15.3789   -4.2879   16.4323 C   0  0  0  0  0  0  0  0  0  0  0  0
   16.1425   -3.2413   16.0224 N   0  0  0  0  0  0  0  0  0  0  0  0
   17.1008   -3.1597   14.9375 C   0  0  0  0  0  0  0  0  0  0  0  0
   16.7176   -2.1134   13.8898 C   0  0  0  0  0  0  0  0  0  0  0  0
   16.6180   -2.3872   12.7583 O   0  0  0  0  0  0  0  0  0  0  0  0
   16.4820   -0.7630   14.6236 N   0  0  0  0  0  0  0  0  0  0  0  0
   15.9879    0.4897   14.1316 C   0  0  0  0  0  0  0  0  0  0  0  0
   14.5434    0.7297   14.5863 C   0  0  0  0  0  0  0  0  0  0  0  0
   13.6454   -0.4942   14.3812 C   0  0  0  0  0  0  0  0  0  0  0  0
   12.1839   -0.1993   14.1118 C   0  0  0  0  0  0  0  0  0  0  0  0
   11.5103   -1.5324   14.4455 C   0  0  0  0  0  0  0  0  0  0  0  0
   12.3719   -2.0768   15.5389 C   0  0  0  0  0  0  0  0  0  0  0  0
   12.1141   -3.0271   16.2550 O   0  0  0  0  0  0  0  0  0  0  0  0
   13.5206   -1.3084   15.5595 N   0  0  0  0  0  0  0  0  0  0  0  0
   16.0393   -2.2050   16.8787 N   0  0  0  0  0  0  0  0  0  0  0  0
   15.1858   -2.5490   17.8239 N   0  0  0  0  0  0  0  0  0  0  0  0
   15.2848   -4.6482   19.9087 H   0  0  0  0  0  0  0  0  0  0  0  0
   13.9695   -5.5290   20.2323 H   0  0  0  0  0  0  0  0  0  0  0  0
   13.1614   -5.1332   17.9464 H   0  0  0  0  0  0  0  0  0  0  0  0
   13.2439   -3.7482   19.0379 H   0  0  0  0  0  0  0  0  0  0  0  0
   15.3468   -5.2318   15.9151 H   0  0  0  0  0  0  0  0  0  0  0  0
   18.0784   -2.9117   15.3638 H   0  0  0  0  0  0  0  0  0  0  0  0
   17.1661   -4.1455   14.4691 H   0  0  0  0  0  0  0  0  0  0  0  0
   16.7418   -0.8587   15.6067 H   0  0  0  0  0  0  0  0  0  0  0  0
   16.0354    0.4627   13.0381 H   0  0  0  0  0  0  0  0  0  0  0  0
   16.6444    1.2866   14.4925 H   0  0  0  0  0  0  0  0  0  0  0  0
   14.1549    1.5826   14.0168 H   0  0  0  0  0  0  0  0  0  0  0  0
   14.5409    1.0228   15.6440 H   0  0  0  0  0  0  0  0  0  0  0  0
   14.0227   -1.1291   13.5693 H   0  0  0  0  0  0  0  0  0  0  0  0
   11.9942    0.1165   13.0819 H   0  0  0  0  0  0  0  0  0  0  0  0
   11.8086    0.5839   14.7834 H   0  0  0  0  0  0  0  0  0  0  0  0
   10.4871   -1.3931   14.8003 H   0  0  0  0  0  0  0  0  0  0  0  0
   11.5599   -2.2305   13.6054 H   0  0  0  0  0  0  0  0  0  0  0  0
   14.2925   -1.5881   16.1625 H   0  0  0  0  0  0  0  0  0  0  0  0
  1  2  1  0
  2  3  1  0
  3  4  2  0
  4  5  1  0
  5  6  1  0
  6  7  1  0
  7  8  2  0
  7  9  1  0
  9 10  1  0
 10 11  1  0
 11 12  1  0
 12 13  1  0
 13 14  1  0
 14 15  1  0
 15 16  2  0
 15 17  1  0
  5 18  1  0
 18 19  2  0
 19  3  1  0
 17 12  1  0
  1 20  1  0
  1 21  1  0
  2 22  1  0
  2 23  1  0
  4 24  1  0
  6 25  1  0
  6 26  1  0
  9 27  1  0
 10 28  1  0
 10 29  1  0
 11 30  1  0
 11 31  1  0
 12 32  1  0
 13 33  1  0
 13 34  1  0
 14 35  1  0
 14 36  1  0
 17 37  1  0
M  END
>  <Energy>  (516) 
-6.9738898855012437

>  <compound_id>  (516) 
62138

>  <target_id>  (516) 
1

>  <reference_id>  (516) 
98

>  <inspiration_ids>  (516) 
[97, 98]

>  <energy_score>  (516) 
-8.616095465124602

>  <distance_score>  (516) 
2.0490457280209413

>  <path>  (516) 
/opt/xchem-fragalysis-2/maxwin/BulkDock/SCRATCH/511021/C62138-P98/C62138-P98.minimised.mol

>  <scratch_subdir>  (516) 
/opt/xchem-fragalysis-2/maxwin/BulkDock/SCRATCH/511021/C62138-P98

>  <fragmenstein_runtime>  (516) 
3.157548666000366

>  <fragmenstein_outcome>  (516) 
too moved

>  <fragmenstein_mode>  (516) 
expansion

>  <fragmenstein_error>  (516) 


$$$$
C62143-P85
     RDKit          3D

 40 43  0  0  0  0  0  0  0  0999 V2000
    1.7017  -30.5031   13.0946 O   0  0  0  0  0  0  0  0  0  0  0  0
    0.9660  -29.6123   13.1063 C   0  0  0  0  0  0  0  0  0  0  0  0
   -0.4486  -29.9953   13.7809 C   0  0  0  0  0  0  0  0  0  0  0  0
   -0.3301  -31.1542   14.7388 C   0  0  0  0  0  0  0  0  0  0  0  0
   -1.3569  -31.5965   15.4825 C   0  0  0  0  0  0  0  0  0  0  0  0
   -2.5959  -30.9940   15.3693 N   0  0  0  0  0  0  0  0  0  0  0  0
   -3.7313  -31.3212   16.0405 N   0  0  0  0  0  0  0  0  0  0  0  0
   -4.6610  -30.4977   15.5623 C   0  0  0  0  0  0  0  0  0  0  0  0
   -4.1383  -29.5976   14.6153 C   0  0  0  0  0  0  0  0  0  0  0  0
   -2.8033  -29.9285   14.4844 C   0  0  0  0  0  0  0  0  0  0  0  0
   -1.6830  -29.4380   13.6848 C   0  0  0  0  0  0  0  0  0  0  0  0
    1.1254  -28.0462   12.6782 N   0  0  0  0  0  0  0  0  0  0  0  0
    2.7415  -27.3817   11.8008 C   0  0  0  0  0  0  0  0  0  0  0  0
    3.5967  -25.8283   11.6674 C   0  0  0  0  0  0  0  0  0  0  0  0
    2.7457  -24.8959   11.2542 C   0  0  0  0  0  0  0  0  0  0  0  0
    3.0172  -23.4967   10.8427 C   0  0  0  0  0  0  0  0  0  0  0  0
    2.4023  -22.9018    9.7334 C   0  0  0  0  0  0  0  0  0  0  0  0
    2.6312  -21.5623    9.3604 C   0  0  0  0  0  0  0  0  0  0  0  0
    3.5033  -20.7727   10.0973 C   0  0  0  0  0  0  0  0  0  0  0  0
    4.1488  -21.3350   11.1943 C   0  0  0  0  0  0  0  0  0  0  0  0
    3.9118  -22.6787   11.5558 C   0  0  0  0  0  0  0  0  0  0  0  0
    1.5068  -25.7240   11.3019 C   0  0  0  0  0  0  0  0  0  0  0  0
    2.1218  -27.2568   12.2996 C   0  0  0  0  0  0  0  0  0  0  0  0
    0.6397  -31.6372   14.8306 H   0  0  0  0  0  0  0  0  0  0  0  0
   -1.2823  -32.4198   16.1797 H   0  0  0  0  0  0  0  0  0  0  0  0
   -5.6783  -30.5819   15.9263 H   0  0  0  0  0  0  0  0  0  0  0  0
   -4.6657  -28.8233   14.0773 H   0  0  0  0  0  0  0  0  0  0  0  0
   -1.8431  -28.5905   13.0252 H   0  0  0  0  0  0  0  0  0  0  0  0
    3.6490  -28.1753   12.0595 H   0  0  0  0  0  0  0  0  0  0  0  0
    2.6832  -27.7907   10.6535 H   0  0  0  0  0  0  0  0  0  0  0  0
    4.6700  -25.7752   11.7830 H   0  0  0  0  0  0  0  0  0  0  0  0
    1.7164  -23.4755    9.1323 H   0  0  0  0  0  0  0  0  0  0  0  0
    2.1098  -21.1468    8.5013 H   0  0  0  0  0  0  0  0  0  0  0  0
    3.6667  -19.7343    9.8274 H   0  0  0  0  0  0  0  0  0  0  0  0
    4.8258  -20.7317   11.7929 H   0  0  0  0  0  0  0  0  0  0  0  0
    4.4147  -23.0723   12.4363 H   0  0  0  0  0  0  0  0  0  0  0  0
    1.2260  -26.1228   10.3205 H   0  0  0  0  0  0  0  0  0  0  0  0
    0.6531  -25.2782   11.8017 H   0  0  0  0  0  0  0  0  0  0  0  0
    1.5659  -26.5180   13.0798 H   0  0  0  0  0  0  0  0  0  0  0  0
    2.7883  -27.1218   13.4741 H   0  0  0  0  0  0  0  0  0  0  0  0
  1  2  2  0
  2  3  1  0
  3  4  1  0
  4  5  2  0
  5  6  1  0
  6  7  1  0
  7  8  2  0
  8  9  1  0
  9 10  2  0
 10 11  1  0
  2 12  1  0
 12 13  1  0
 13 14  1  0
 14 15  2  0
 15 16  1  0
 16 17  2  0
 17 18  1  0
 18 19  2  0
 19 20  1  0
 20 21  2  0
 15 22  1  0
 22 23  1  0
 11  3  2  0
 23 12  1  0
 10  6  1  0
 21 16  1  0
  4 24  1  0
  5 25  1  0
  8 26  1  0
  9 27  1  0
 11 28  1  0
 13 29  1  0
 13 30  1  0
 14 31  1  0
 17 32  1  0
 18 33  1  0
 19 34  1  0
 20 35  1  0
 21 36  1  0
 22 37  1  0
 22 38  1  0
 23 39  1  0
 23 40  1  0
M  END
>  <Energy>  (517) 
855.71351171398271

>  <compound_id>  (517) 
62143

>  <target_id>  (517) 
1

>  <reference_id>  (517) 
85

>  <inspiration_ids>  (517) 
[85, 68]

>  <energy_score>  (517) 
776.7949316407012

>  <distance_score>  (517) 
10.3644059331938

>  <path>  (517) 
/opt/xchem-fragalysis-2/maxwin/BulkDock/SCRATCH/511021/C62143-P85/C62143-P85.minimised.mol

>  <scratch_subdir>  (517) 
/opt/xchem-fragalysis-2/maxwin/BulkDock/SCRATCH/511021/C62143-P85

>  <fragmenstein_runtime>  (517) 
7.677754163742065

>  <fragmenstein_outcome>  (517) 
too moved

>  <fragmenstein_mode>  (517) 
expansion

>  <fragmenstein_error>  (517) 


$$$$
C62143-P68
     RDKit          3D

 40 43  0  0  0  0  0  0  0  0999 V2000
    1.2173  -23.6307   21.8523 O   0  0  0  0  0  0  0  0  0  0  0  0
    0.7952  -24.0287   20.8486 C   0  0  0  0  0  0  0  0  0  0  0  0
   -0.1448  -25.2615   20.9904 C   0  0  0  0  0  0  0  0  0  0  0  0
   -1.5233  -24.9979   21.4575 C   0  0  0  0  0  0  0  0  0  0  0  0
   -2.2374  -25.9545   22.0822 C   0  0  0  0  0  0  0  0  0  0  0  0
   -1.7116  -27.2297   22.2620 N   0  0  0  0  0  0  0  0  0  0  0  0
   -2.3147  -28.2799   22.8820 N   0  0  0  0  0  0  0  0  0  0  0  0
   -1.4317  -29.2736   22.7812 C   0  0  0  0  0  0  0  0  0  0  0  0
   -0.2439  -28.8808   22.1373 C   0  0  0  0  0  0  0  0  0  0  0  0
   -0.4294  -27.5517   21.8150 C   0  0  0  0  0  0  0  0  0  0  0  0
    0.3639  -26.5092   21.1911 C   0  0  0  0  0  0  0  0  0  0  0  0
    0.9077  -23.4906   19.3359 N   0  0  0  0  0  0  0  0  0  0  0  0
    1.7173  -21.7585   18.8853 C   0  0  0  0  0  0  0  0  0  0  0  0
    1.5591  -20.7834   17.4327 C   0  0  0  0  0  0  0  0  0  0  0  0
    2.2341  -21.3863   16.4524 C   0  0  0  0  0  0  0  0  0  0  0  0
    2.6351  -20.8638   15.1273 C   0  0  0  0  0  0  0  0  0  0  0  0
    1.7749  -20.0593   14.3612 C   0  0  0  0  0  0  0  0  0  0  0  0
    2.1205  -19.6450   13.0629 C   0  0  0  0  0  0  0  0  0  0  0  0
    3.3696  -19.9423   12.5350 C   0  0  0  0  0  0  0  0  0  0  0  0
    4.2544  -20.7001   13.2922 C   0  0  0  0  0  0  0  0  0  0  0  0
    3.8806  -21.1749   14.5633 C   0  0  0  0  0  0  0  0  0  0  0  0
    2.5297  -22.7195   17.0744 C   0  0  0  0  0  0  0  0  0  0  0  0
    1.5847  -22.5296   18.7286 C   0  0  0  0  0  0  0  0  0  0  0  0
   -1.9046  -23.9890   21.3430 H   0  0  0  0  0  0  0  0  0  0  0  0
   -3.2273  -25.7938   22.4848 H   0  0  0  0  0  0  0  0  0  0  0  0
   -1.6765  -30.2429   23.1926 H   0  0  0  0  0  0  0  0  0  0  0  0
    0.6304  -29.4813   21.9340 H   0  0  0  0  0  0  0  0  0  0  0  0
    1.4169  -26.7043   21.0125 H   0  0  0  0  0  0  0  0  0  0  0  0
    2.7366  -21.4265   19.5104 H   0  0  0  0  0  0  0  0  0  0  0  0
    1.0208  -21.0400   19.5909 H   0  0  0  0  0  0  0  0  0  0  0  0
    1.1806  -19.7722   17.4727 H   0  0  0  0  0  0  0  0  0  0  0  0
    0.7981  -19.7890   14.7486 H   0  0  0  0  0  0  0  0  0  0  0  0
    1.4183  -19.0740   12.4623 H   0  0  0  0  0  0  0  0  0  0  0  0
    3.6379  -19.6021   11.5400 H   0  0  0  0  0  0  0  0  0  0  0  0
    5.2302  -20.9556   12.8883 H   0  0  0  0  0  0  0  0  0  0  0  0
    4.5880  -21.7928   15.1111 H   0  0  0  0  0  0  0  0  0  0  0  0
    2.1328  -23.5881   16.5538 H   0  0  0  0  0  0  0  0  0  0  0  0
    3.5947  -22.8395   17.3120 H   0  0  0  0  0  0  0  0  0  0  0  0
    2.4890  -23.3449   19.0114 H   0  0  0  0  0  0  0  0  0  0  0  0
    0.6617  -22.8254   17.9368 H   0  0  0  0  0  0  0  0  0  0  0  0
  1  2  2  0
  2  3  1  0
  3  4  1  0
  4  5  2  0
  5  6  1  0
  6  7  1  0
  7  8  2  0
  8  9  1  0
  9 10  2  0
 10 11  1  0
  2 12  1  0
 12 13  1  0
 13 14  1  0
 14 15  2  0
 15 16  1  0
 16 17  2  0
 17 18  1  0
 18 19  2  0
 19 20  1  0
 20 21  2  0
 15 22  1  0
 22 23  1  0
 11  3  2  0
 23 12  1  0
 10  6  1  0
 21 16  1  0
  4 24  1  0
  5 25  1  0
  8 26  1  0
  9 27  1  0
 11 28  1  0
 13 29  1  0
 13 30  1  0
 14 31  1  0
 17 32  1  0
 18 33  1  0
 19 34  1  0
 20 35  1  0
 21 36  1  0
 22 37  1  0
 22 38  1  0
 23 39  1  0
 23 40  1  0
M  END
>  <Energy>  (518) 
850.58044832395819

>  <compound_id>  (518) 
62143

>  <target_id>  (518) 
1

>  <reference_id>  (518) 
68

>  <inspiration_ids>  (518) 
[85, 68]

>  <energy_score>  (518) 
771.661868250665

>  <distance_score>  (518) 
10.846167921035867

>  <path>  (518) 
/opt/xchem-fragalysis-2/maxwin/BulkDock/SCRATCH/511021/C62143-P68/C62143-P68.minimised.mol

>  <scratch_subdir>  (518) 
/opt/xchem-fragalysis-2/maxwin/BulkDock/SCRATCH/511021/C62143-P68

>  <fragmenstein_runtime>  (518) 
15.436972379684448

>  <fragmenstein_outcome>  (518) 
too moved

>  <fragmenstein_mode>  (518) 
expansion

>  <fragmenstein_error>  (518) 


$$$$
C62148-P85
     RDKit          3D

 34 36  0  0  0  0  0  0  0  0999 V2000
    3.0781  -24.5791   19.3089 O   0  0  0  0  0  0  0  0  0  0  0  0
    1.8946  -24.3979   19.1332 C   0  0  0  0  0  0  0  0  0  0  0  0
    1.6390  -23.0665   18.3331 C   0  0  0  0  0  0  0  0  0  0  0  0
    2.2522  -23.0368   16.9701 C   0  0  0  0  0  0  0  0  0  0  0  0
    2.4021  -21.8904   16.2763 C   0  0  0  0  0  0  0  0  0  0  0  0
    1.9434  -20.6900   16.8046 N   0  0  0  0  0  0  0  0  0  0  0  0
    1.9918  -19.4454   16.2376 N   0  0  0  0  0  0  0  0  0  0  0  0
    1.3981  -18.6492   17.1252 C   0  0  0  0  0  0  0  0  0  0  0  0
    0.9680  -19.3410   18.2769 C   0  0  0  0  0  0  0  0  0  0  0  0
    1.3188  -20.6558   18.0606 C   0  0  0  0  0  0  0  0  0  0  0  0
    1.2027  -21.8832   18.8303 C   0  0  0  0  0  0  0  0  0  0  0  0
    0.7558  -25.2432   19.4473 N   0  0  0  0  0  0  0  0  0  0  0  0
    0.6963  -26.6491   19.9815 C   0  0  0  0  0  0  0  0  0  0  0  0
    1.5558  -27.1050   21.1301 C   0  0  0  0  0  0  0  0  0  0  0  0
    1.8768  -26.2687   22.1203 C   0  0  0  0  0  0  0  0  0  0  0  0
    1.3177  -24.8909   22.0223 C   0  0  0  0  0  0  0  0  0  0  0  0
    0.1936  -24.9059   20.9387 C   0  0  0  0  0  0  0  0  0  0  0  0
   -1.0673  -25.6300   21.6859 C   0  0  0  0  0  0  0  0  0  0  0  0
   -2.2172  -25.9135   20.9340 O   0  0  0  0  0  0  0  0  0  0  0  0
    2.6195  -23.9793   16.5719 H   0  0  0  0  0  0  0  0  0  0  0  0
    2.8615  -21.8385   15.2976 H   0  0  0  0  0  0  0  0  0  0  0  0
    1.3075  -17.5933   16.9080 H   0  0  0  0  0  0  0  0  0  0  0  0
    0.4735  -18.9328   19.1462 H   0  0  0  0  0  0  0  0  0  0  0  0
    0.8488  -21.8162   19.8529 H   0  0  0  0  0  0  0  0  0  0  0  0
   -0.3045  -27.0757   19.9549 H   0  0  0  0  0  0  0  0  0  0  0  0
    1.1765  -27.1818   19.1457 H   0  0  0  0  0  0  0  0  0  0  0  0
    1.9269  -28.1256   21.1231 H   0  0  0  0  0  0  0  0  0  0  0  0
    2.5273  -26.5537   22.9390 H   0  0  0  0  0  0  0  0  0  0  0  0
    0.9103  -24.5857   22.9930 H   0  0  0  0  0  0  0  0  0  0  0  0
    2.1122  -24.1805   21.7733 H   0  0  0  0  0  0  0  0  0  0  0  0
   -0.1354  -23.8654   20.8079 H   0  0  0  0  0  0  0  0  0  0  0  0
   -0.7752  -26.5479   22.2088 H   0  0  0  0  0  0  0  0  0  0  0  0
   -1.3841  -24.9454   22.4833 H   0  0  0  0  0  0  0  0  0  0  0  0
   -2.2372  -26.8885   20.8188 H   0  0  0  0  0  0  0  0  0  0  0  0
  1  2  2  0
  2  3  1  0
  3  4  1  0
  4  5  2  0
  5  6  1  0
  6  7  1  0
  7  8  2  0
  8  9  1  0
  9 10  2  0
 10 11  1  0
  2 12  1  0
 12 13  1  0
 13 14  1  0
 14 15  2  0
 15 16  1  0
 16 17  1  0
 17 18  1  0
 18 19  1  0
 11  3  2  0
 17 12  1  0
 10  6  1  0
  4 20  1  0
  5 21  1  0
  8 22  1  0
  9 23  1  0
 11 24  1  0
 13 25  1  0
 13 26  1  0
 14 27  1  0
 15 28  1  0
 16 29  1  0
 16 30  1  0
 17 31  1  0
 18 32  1  0
 18 33  1  0
 19 34  1  0
M  END
>  <Energy>  (519) 
162.26930009040447

>  <compound_id>  (519) 
62148

>  <target_id>  (519) 
1

>  <reference_id>  (519) 
85

>  <inspiration_ids>  (519) 
[85, 68]

>  <energy_score>  (519) 
71.61243706229094

>  <distance_score>  (519) 
13.709477114270316

>  <path>  (519) 
/opt/xchem-fragalysis-2/maxwin/BulkDock/SCRATCH/511021/C62148-P85/C62148-P85.minimised.mol

>  <scratch_subdir>  (519) 
/opt/xchem-fragalysis-2/maxwin/BulkDock/SCRATCH/511021/C62148-P85

>  <fragmenstein_runtime>  (519) 
4.621468544006348

>  <fragmenstein_outcome>  (519) 
too moved

>  <fragmenstein_mode>  (519) 
expansion

>  <fragmenstein_error>  (519) 


$$$$
C62148-P68
     RDKit          3D

 34 36  0  0  0  0  0  0  0  0999 V2000
    1.7647  -21.8498   21.0857 O   0  0  0  0  0  0  0  0  0  0  0  0
    1.4657  -22.7470   20.3332 C   0  0  0  0  0  0  0  0  0  0  0  0
    1.0483  -22.2150   18.9169 C   0  0  0  0  0  0  0  0  0  0  0  0
    1.9101  -22.5373   17.7551 C   0  0  0  0  0  0  0  0  0  0  0  0
    2.0382  -21.6753   16.7206 C   0  0  0  0  0  0  0  0  0  0  0  0
    1.2811  -20.5030   16.6679 N   0  0  0  0  0  0  0  0  0  0  0  0
    1.2359  -19.5604   15.6794 N   0  0  0  0  0  0  0  0  0  0  0  0
    0.2966  -18.6992   16.0708 C   0  0  0  0  0  0  0  0  0  0  0  0
   -0.2560  -19.0332   17.3217 C   0  0  0  0  0  0  0  0  0  0  0  0
    0.3837  -20.1941   17.6931 C   0  0  0  0  0  0  0  0  0  0  0  0
    0.3419  -21.0505   18.8539 C   0  0  0  0  0  0  0  0  0  0  0  0
    1.5361  -24.1810   20.5092 N   0  0  0  0  0  0  0  0  0  0  0  0
    2.1080  -25.0057   21.6368 C   0  0  0  0  0  0  0  0  0  0  0  0
    2.1215  -26.5022   21.5315 C   0  0  0  0  0  0  0  0  0  0  0  0
    1.0068  -27.1567   21.2273 C   0  0  0  0  0  0  0  0  0  0  0  0
   -0.1455  -26.2971   20.9159 C   0  0  0  0  0  0  0  0  0  0  0  0
    0.1279  -24.7536   21.1307 C   0  0  0  0  0  0  0  0  0  0  0  0
   -1.1708  -24.0754   20.6238 C   0  0  0  0  0  0  0  0  0  0  0  0
   -2.3374  -24.6405   21.2535 O   0  0  0  0  0  0  0  0  0  0  0  0
    2.4901  -23.4551   17.7974 H   0  0  0  0  0  0  0  0  0  0  0  0
    2.6919  -21.8536   15.8761 H   0  0  0  0  0  0  0  0  0  0  0  0
    0.0507  -17.8618   15.4316 H   0  0  0  0  0  0  0  0  0  0  0  0
   -1.0151  -18.5006   17.8759 H   0  0  0  0  0  0  0  0  0  0  0  0
   -0.1517  -20.6674   19.7433 H   0  0  0  0  0  0  0  0  0  0  0  0
    3.1734  -24.7393   21.5375 H   0  0  0  0  0  0  0  0  0  0  0  0
    1.9143  -24.6117   22.6472 H   0  0  0  0  0  0  0  0  0  0  0  0
    3.0383  -27.0372   21.7588 H   0  0  0  0  0  0  0  0  0  0  0  0
    0.9433  -28.2365   21.1524 H   0  0  0  0  0  0  0  0  0  0  0  0
   -1.0003  -26.6265   21.5159 H   0  0  0  0  0  0  0  0  0  0  0  0
   -0.3671  -26.4673   19.8699 H   0  0  0  0  0  0  0  0  0  0  0  0
    0.0727  -24.5158   22.2086 H   0  0  0  0  0  0  0  0  0  0  0  0
   -1.2536  -24.1741   19.5386 H   0  0  0  0  0  0  0  0  0  0  0  0
   -1.1708  -23.0059   20.8560 H   0  0  0  0  0  0  0  0  0  0  0  0
   -2.2724  -24.4534   22.2071 H   0  0  0  0  0  0  0  0  0  0  0  0
  1  2  2  0
  2  3  1  0
  3  4  1  0
  4  5  2  0
  5  6  1  0
  6  7  1  0
  7  8  2  0
  8  9  1  0
  9 10  2  0
 10 11  1  0
  2 12  1  0
 12 13  1  0
 13 14  1  0
 14 15  2  0
 15 16  1  0
 16 17  1  0
 17 18  1  0
 18 19  1  0
 11  3  2  0
 17 12  1  0
 10  6  1  0
  4 20  1  0
  5 21  1  0
  8 22  1  0
  9 23  1  0
 11 24  1  0
 13 25  1  0
 13 26  1  0
 14 27  1  0
 15 28  1  0
 16 29  1  0
 16 30  1  0
 17 31  1  0
 18 32  1  0
 18 33  1  0
 19 34  1  0
M  END
>  <Energy>  (520) 
148.22812235135279

>  <compound_id>  (520) 
62148

>  <target_id>  (520) 
1

>  <reference_id>  (520) 
68

>  <inspiration_ids>  (520) 
[85, 68]

>  <energy_score>  (520) 
57.57125932324317

>  <distance_score>  (520) 
13.708067630286608

>  <path>  (520) 
/opt/xchem-fragalysis-2/maxwin/BulkDock/SCRATCH/511021/C62148-P68/C62148-P68.minimised.mol

>  <scratch_subdir>  (520) 
/opt/xchem-fragalysis-2/maxwin/BulkDock/SCRATCH/511021/C62148-P68

>  <fragmenstein_runtime>  (520) 
12.075575351715088

>  <fragmenstein_outcome>  (520) 
too moved

>  <fragmenstein_mode>  (520) 
expansion

>  <fragmenstein_error>  (520) 


$$$$
C62151-P85
     RDKit          3D

 40 42  0  0  0  0  0  0  0  0999 V2000
   -1.5713  -25.9676   11.5599 N   0  0  0  0  0  0  0  0  0  0  0  0
   -2.1885  -26.7369   12.1679 C   0  0  0  0  0  0  0  0  0  0  0  0
   -2.9636  -27.6798   12.9186 C   0  0  0  0  0  0  0  0  0  0  0  0
   -2.6245  -28.9595   13.1337 C   0  0  0  0  0  0  0  0  0  0  0  0
   -3.5696  -29.9548   13.8336 C   0  0  0  0  0  0  0  0  0  0  0  0
   -4.5915  -29.4901   14.9109 N   0  0  0  0  0  0  0  0  0  0  0  0
   -5.2165  -30.6492   15.5426 C   0  0  0  0  0  0  0  0  0  0  0  0
   -6.2234  -31.2505   15.2545 O   0  0  0  0  0  0  0  0  0  0  0  0
   -4.4196  -31.1483   16.8024 C   0  0  0  0  0  0  0  0  0  0  0  0
   -3.8805  -32.4488   16.5717 O   0  0  0  0  0  0  0  0  0  0  0  0
   -5.2049  -31.1038   18.1620 C   0  0  0  0  0  0  0  0  0  0  0  0
   -5.9495  -32.3008   18.7501 C   0  0  0  0  0  0  0  0  0  0  0  0
   -7.0728  -32.8611   18.1459 C   0  0  0  0  0  0  0  0  0  0  0  0
   -7.7787  -33.9070   18.7735 C   0  0  0  0  0  0  0  0  0  0  0  0
   -7.4085  -34.4268   20.0103 C   0  0  0  0  0  0  0  0  0  0  0  0
   -8.1158  -35.4313   20.5678 N   0  0  0  0  0  0  0  0  0  0  0  0
   -7.7121  -35.9062   21.7670 C   0  0  0  0  0  0  0  0  0  0  0  0
   -6.6198  -35.4197   22.4568 C   0  0  0  0  0  0  0  0  0  0  0  0
   -5.8964  -34.3818   21.8814 C   0  0  0  0  0  0  0  0  0  0  0  0
   -6.2825  -33.8645   20.6362 C   0  0  0  0  0  0  0  0  0  0  0  0
   -5.5741  -32.8146   20.0087 C   0  0  0  0  0  0  0  0  0  0  0  0
   -5.0660  -28.6166   13.7754 C   0  0  0  0  0  0  0  0  0  0  0  0
   -4.2768  -27.3211   13.4947 C   0  0  0  0  0  0  0  0  0  0  0  0
   -1.6900  -29.3617   12.7479 H   0  0  0  0  0  0  0  0  0  0  0  0
   -4.0330  -30.6553   13.1187 H   0  0  0  0  0  0  0  0  0  0  0  0
   -2.8934  -30.6035   14.4116 H   0  0  0  0  0  0  0  0  0  0  0  0
   -3.5590  -30.4764   16.9071 H   0  0  0  0  0  0  0  0  0  0  0  0
   -4.6512  -33.0392   16.4660 H   0  0  0  0  0  0  0  0  0  0  0  0
   -4.4372  -30.8528   18.9081 H   0  0  0  0  0  0  0  0  0  0  0  0
   -5.8702  -30.2385   18.1647 H   0  0  0  0  0  0  0  0  0  0  0  0
   -7.4295  -32.4805   17.1908 H   0  0  0  0  0  0  0  0  0  0  0  0
   -8.6515  -34.3259   18.2774 H   0  0  0  0  0  0  0  0  0  0  0  0
   -8.3151  -36.7147   22.1699 H   0  0  0  0  0  0  0  0  0  0  0  0
   -6.3396  -35.8361   23.4175 H   0  0  0  0  0  0  0  0  0  0  0  0
   -5.0302  -33.9829   22.4022 H   0  0  0  0  0  0  0  0  0  0  0  0
   -4.7095  -32.3901   20.5171 H   0  0  0  0  0  0  0  0  0  0  0  0
   -6.0312  -28.2627   14.1726 H   0  0  0  0  0  0  0  0  0  0  0  0
   -5.4071  -29.1607   12.8759 H   0  0  0  0  0  0  0  0  0  0  0  0
   -4.1157  -26.7876   14.4352 H   0  0  0  0  0  0  0  0  0  0  0  0
   -4.8495  -26.6922   12.8048 H   0  0  0  0  0  0  0  0  0  0  0  0
  1  2  3  0
  2  3  1  0
  3  4  2  0
  4  5  1  0
  5  6  1  0
  6  7  1  0
  7  8  2  0
  7  9  1  0
  9 10  1  0
  9 11  1  0
 11 12  1  0
 12 13  2  0
 13 14  1  0
 14 15  2  0
 15 16  1  0
 16 17  2  0
 17 18  1  0
 18 19  2  0
 19 20  1  0
 20 21  2  0
  6 22  1  0
 22 23  1  0
 23  3  1  0
 21 12  1  0
 20 15  1  0
  4 24  1  0
  5 25  1  0
  5 26  1  0
  9 27  1  0
 10 28  1  0
 11 29  1  0
 11 30  1  0
 13 31  1  0
 14 32  1  0
 17 33  1  0
 18 34  1  0
 19 35  1  0
 21 36  1  0
 22 37  1  0
 22 38  1  0
 23 39  1  0
 23 40  1  0
M  END
>  <Energy>  (521) 
144.742103403794

>  <compound_id>  (521) 
62151

>  <target_id>  (521) 
1

>  <reference_id>  (521) 
85

>  <inspiration_ids>  (521) 
[85, 68]

>  <energy_score>  (521) 
55.73938306027496

>  <distance_score>  (521) 
9.706777683922377

>  <path>  (521) 
/opt/xchem-fragalysis-2/maxwin/BulkDock/SCRATCH/511021/C62151-P85/C62151-P85.minimised.mol

>  <scratch_subdir>  (521) 
/opt/xchem-fragalysis-2/maxwin/BulkDock/SCRATCH/511021/C62151-P85

>  <fragmenstein_runtime>  (521) 
10.161075592041016

>  <fragmenstein_outcome>  (521) 
too moved

>  <fragmenstein_mode>  (521) 
expansion

>  <fragmenstein_error>  (521) 


$$$$
C62151-P68
     RDKit          3D

 40 42  0  0  0  0  0  0  0  0999 V2000
   -2.5967  -26.2817   12.9193 N   0  0  0  0  0  0  0  0  0  0  0  0
   -3.1698  -26.9977   13.6354 C   0  0  0  0  0  0  0  0  0  0  0  0
   -3.9522  -27.8876   14.4717 C   0  0  0  0  0  0  0  0  0  0  0  0
   -3.4957  -28.8023   15.3504 C   0  0  0  0  0  0  0  0  0  0  0  0
   -4.4258  -29.8435   16.0841 C   0  0  0  0  0  0  0  0  0  0  0  0
   -5.9647  -29.5852   16.2729 N   0  0  0  0  0  0  0  0  0  0  0  0
   -6.5849  -30.6958   17.0415 C   0  0  0  0  0  0  0  0  0  0  0  0
   -7.0929  -31.7207   16.6581 O   0  0  0  0  0  0  0  0  0  0  0  0
   -6.6998  -30.4226   18.7240 C   0  0  0  0  0  0  0  0  0  0  0  0
   -5.4020  -30.6946   19.2287 O   0  0  0  0  0  0  0  0  0  0  0  0
   -8.1454  -30.9753   19.8401 C   0  0  0  0  0  0  0  0  0  0  0  0
   -9.8602  -31.3087   20.6726 C   0  0  0  0  0  0  0  0  0  0  0  0
  -11.1449  -30.9119   20.3025 C   0  0  0  0  0  0  0  0  0  0  0  0
  -12.3086  -31.5700   20.8095 C   0  0  0  0  0  0  0  0  0  0  0  0
  -12.2868  -32.6675   21.6708 C   0  0  0  0  0  0  0  0  0  0  0  0
  -13.4114  -33.2488   22.1350 N   0  0  0  0  0  0  0  0  0  0  0  0
  -13.2904  -34.3618   22.9011 C   0  0  0  0  0  0  0  0  0  0  0  0
  -12.0866  -34.9342   23.2542 C   0  0  0  0  0  0  0  0  0  0  0  0
  -10.9384  -34.3183   22.7942 C   0  0  0  0  0  0  0  0  0  0  0  0
  -11.0393  -33.1683   21.9949 C   0  0  0  0  0  0  0  0  0  0  0  0
   -9.9082  -32.5322   21.4703 C   0  0  0  0  0  0  0  0  0  0  0  0
   -5.8848  -29.3514   14.7906 C   0  0  0  0  0  0  0  0  0  0  0  0
   -5.4232  -27.9615   14.3212 C   0  0  0  0  0  0  0  0  0  0  0  0
   -2.4289  -28.9202   15.5257 H   0  0  0  0  0  0  0  0  0  0  0  0
   -4.0401  -29.8733   17.1091 H   0  0  0  0  0  0  0  0  0  0  0  0
   -4.2537  -30.8642   15.7049 H   0  0  0  0  0  0  0  0  0  0  0  0
   -6.6246  -29.3488   18.8760 H   0  0  0  0  0  0  0  0  0  0  0  0
   -4.8133  -29.9743   18.9557 H   0  0  0  0  0  0  0  0  0  0  0  0
   -7.6733  -31.8257   20.2760 H   0  0  0  0  0  0  0  0  0  0  0  0
   -8.0941  -30.0516   20.3193 H   0  0  0  0  0  0  0  0  0  0  0  0
  -11.3613  -30.1455   19.5781 H   0  0  0  0  0  0  0  0  0  0  0  0
  -13.2829  -31.2148   20.4760 H   0  0  0  0  0  0  0  0  0  0  0  0
  -14.2315  -34.7937   23.2309 H   0  0  0  0  0  0  0  0  0  0  0  0
  -12.0459  -35.8269   23.8664 H   0  0  0  0  0  0  0  0  0  0  0  0
   -9.9690  -34.7372   23.0520 H   0  0  0  0  0  0  0  0  0  0  0  0
   -9.0006  -33.0806   21.6572 H   0  0  0  0  0  0  0  0  0  0  0  0
   -6.9546  -29.3764   14.5255 H   0  0  0  0  0  0  0  0  0  0  0  0
   -5.5178  -30.2060   14.1928 H   0  0  0  0  0  0  0  0  0  0  0  0
   -5.8909  -27.2110   14.9582 H   0  0  0  0  0  0  0  0  0  0  0  0
   -5.7264  -27.8049   13.2805 H   0  0  0  0  0  0  0  0  0  0  0  0
  1  2  3  0
  2  3  1  0
  3  4  2  0
  4  5  1  0
  5  6  1  0
  6  7  1  0
  7  8  2  0
  7  9  1  0
  9 10  1  0
  9 11  1  0
 11 12  1  0
 12 13  2  0
 13 14  1  0
 14 15  2  0
 15 16  1  0
 16 17  2  0
 17 18  1  0
 18 19  2  0
 19 20  1  0
 20 21  2  0
  6 22  1  0
 22 23  1  0
 23  3  1  0
 21 12  1  0
 20 15  1  0
  4 24  1  0
  5 25  1  0
  5 26  1  0
  9 27  1  0
 10 28  1  0
 11 29  1  0
 11 30  1  0
 13 31  1  0
 14 32  1  0
 17 33  1  0
 18 34  1  0
 19 35  1  0
 21 36  1  0
 22 37  1  0
 22 38  1  0
 23 39  1  0
 23 40  1  0
M  END
>  <Energy>  (522) 
313.36874059753808

>  <compound_id>  (522) 
62151

>  <target_id>  (522) 
1

>  <reference_id>  (522) 
68

>  <inspiration_ids>  (522) 
[85, 68]

>  <energy_score>  (522) 
224.36602025402294

>  <distance_score>  (522) 
10.130220978038318

>  <path>  (522) 
/opt/xchem-fragalysis-2/maxwin/BulkDock/SCRATCH/511021/C62151-P68/C62151-P68.minimised.mol

>  <scratch_subdir>  (522) 
/opt/xchem-fragalysis-2/maxwin/BulkDock/SCRATCH/511021/C62151-P68

>  <fragmenstein_runtime>  (522) 
18.800649881362915

>  <fragmenstein_outcome>  (522) 
too moved

>  <fragmenstein_mode>  (522) 
expansion

>  <fragmenstein_error>  (522) 


$$$$
C62152-P85
     RDKit          3D

 43 45  0  0  0  0  0  0  0  0999 V2000
   -1.7909  -31.6675   13.4476 O   0  0  0  0  0  0  0  0  0  0  0  0
   -1.8591  -30.4792   13.6639 C   0  0  0  0  0  0  0  0  0  0  0  0
   -3.2279  -29.9898   14.2842 C   0  0  0  0  0  0  0  0  0  0  0  0
   -4.3047  -30.4100   13.4377 O   0  0  0  0  0  0  0  0  0  0  0  0
   -3.5975  -30.3539   15.7714 C   0  0  0  0  0  0  0  0  0  0  0  0
   -4.1613  -31.6686   16.3449 C   0  0  0  0  0  0  0  0  0  0  0  0
   -3.4459  -32.8622   16.3119 C   0  0  0  0  0  0  0  0  0  0  0  0
   -3.8508  -33.9775   17.0844 C   0  0  0  0  0  0  0  0  0  0  0  0
   -4.9572  -33.9590   17.9290 C   0  0  0  0  0  0  0  0  0  0  0  0
   -5.2584  -35.0351   18.6912 N   0  0  0  0  0  0  0  0  0  0  0  0
   -6.3286  -34.9585   19.5112 C   0  0  0  0  0  0  0  0  0  0  0  0
   -7.1368  -33.8437   19.6065 C   0  0  0  0  0  0  0  0  0  0  0  0
   -6.8239  -32.7413   18.8148 C   0  0  0  0  0  0  0  0  0  0  0  0
   -5.7141  -32.7769   17.9551 C   0  0  0  0  0  0  0  0  0  0  0  0
   -5.3247  -31.6654   17.1550 C   0  0  0  0  0  0  0  0  0  0  0  0
   -0.9047  -29.4035   13.3745 N   0  0  0  0  0  0  0  0  0  0  0  0
    0.5096  -29.4603   12.8182 C   0  0  0  0  0  0  0  0  0  0  0  0
    1.3191  -28.2170   12.5395 C   0  0  0  0  0  0  0  0  0  0  0  0
    0.8071  -27.1579   11.8999 C   0  0  0  0  0  0  0  0  0  0  0  0
    1.6673  -26.0035   11.3897 C   0  0  0  0  0  0  0  0  0  0  0  0
    1.6345  -24.8801   12.2383 O   0  0  0  0  0  0  0  0  0  0  0  0
   -0.6607  -27.3231   11.6338 C   0  0  0  0  0  0  0  0  0  0  0  0
   -1.1895  -28.7936   11.9755 C   0  0  0  0  0  0  0  0  0  0  0  0
   -3.2077  -28.8936   14.2303 H   0  0  0  0  0  0  0  0  0  0  0  0
   -4.2036  -31.3802   13.3642 H   0  0  0  0  0  0  0  0  0  0  0  0
   -4.3663  -29.6064   16.0019 H   0  0  0  0  0  0  0  0  0  0  0  0
   -2.7218  -30.1067   16.3850 H   0  0  0  0  0  0  0  0  0  0  0  0
   -2.5278  -32.9392   15.7307 H   0  0  0  0  0  0  0  0  0  0  0  0
   -3.2479  -34.8833   17.0465 H   0  0  0  0  0  0  0  0  0  0  0  0
   -6.5215  -35.8469   20.1051 H   0  0  0  0  0  0  0  0  0  0  0  0
   -7.9843  -33.8268   20.2818 H   0  0  0  0  0  0  0  0  0  0  0  0
   -7.4368  -31.8471   18.8825 H   0  0  0  0  0  0  0  0  0  0  0  0
   -5.9230  -30.7576   17.2121 H   0  0  0  0  0  0  0  0  0  0  0  0
    0.6233  -30.2242   12.0301 H   0  0  0  0  0  0  0  0  0  0  0  0
    1.0384  -29.9567   13.6457 H   0  0  0  0  0  0  0  0  0  0  0  0
    2.3773  -28.2487   12.7872 H   0  0  0  0  0  0  0  0  0  0  0  0
    2.7136  -26.3289   11.3450 H   0  0  0  0  0  0  0  0  0  0  0  0
    1.4111  -25.7332   10.3673 H   0  0  0  0  0  0  0  0  0  0  0  0
    1.3916  -24.0727   11.7411 H   0  0  0  0  0  0  0  0  0  0  0  0
   -1.2309  -26.5940   12.2169 H   0  0  0  0  0  0  0  0  0  0  0  0
   -0.8752  -27.1448   10.5755 H   0  0  0  0  0  0  0  0  0  0  0  0
   -1.0167  -29.5085   11.1514 H   0  0  0  0  0  0  0  0  0  0  0  0
   -2.2852  -28.6881   11.9511 H   0  0  0  0  0  0  0  0  0  0  0  0
  1  2  2  0
  2  3  1  0
  3  4  1  0
  3  5  1  0
  5  6  1  0
  6  7  2  0
  7  8  1  0
  8  9  2  0
  9 10  1  0
 10 11  2  0
 11 12  1  0
 12 13  2  0
 13 14  1  0
 14 15  2  0
  2 16  1  0
 16 17  1  0
 17 18  1  0
 18 19  2  0
 19 20  1  0
 20 21  1  0
 19 22  1  0
 22 23  1  0
 15  6  1  0
 23 16  1  0
 14  9  1  0
  3 24  1  0
  4 25  1  0
  5 26  1  0
  5 27  1  0
  7 28  1  0
  8 29  1  0
 11 30  1  0
 12 31  1  0
 13 32  1  0
 15 33  1  0
 17 34  1  0
 17 35  1  0
 18 36  1  0
 20 37  1  0
 20 38  1  0
 21 39  1  0
 22 40  1  0
 22 41  1  0
 23 42  1  0
 23 43  1  0
M  END
>  <Energy>  (523) 
159.56709575370505

>  <compound_id>  (523) 
62152

>  <target_id>  (523) 
1

>  <reference_id>  (523) 
85

>  <inspiration_ids>  (523) 
[85, 68]

>  <energy_score>  (523) 
58.67346988763427

>  <distance_score>  (523) 
10.142583721954196

>  <path>  (523) 
/opt/xchem-fragalysis-2/maxwin/BulkDock/SCRATCH/511021/C62152-P85/C62152-P85.minimised.mol

>  <scratch_subdir>  (523) 
/opt/xchem-fragalysis-2/maxwin/BulkDock/SCRATCH/511021/C62152-P85

>  <fragmenstein_runtime>  (523) 
6.470794916152954

>  <fragmenstein_outcome>  (523) 
too moved

>  <fragmenstein_mode>  (523) 
expansion

>  <fragmenstein_error>  (523) 


$$$$
C62152-P68
     RDKit          3D

 43 45  0  0  0  0  0  0  0  0999 V2000
   -5.0534  -32.0876   17.4790 O   0  0  0  0  0  0  0  0  0  0  0  0
   -5.4796  -30.9732   17.4707 C   0  0  0  0  0  0  0  0  0  0  0  0
   -6.7516  -30.6723   18.7052 C   0  0  0  0  0  0  0  0  0  0  0  0
   -6.3262  -29.3587   18.9842 O   0  0  0  0  0  0  0  0  0  0  0  0
   -8.0877  -31.0635   20.0489 C   0  0  0  0  0  0  0  0  0  0  0  0
   -9.7628  -31.6827   20.8606 C   0  0  0  0  0  0  0  0  0  0  0  0
   -9.7553  -32.9058   21.6155 C   0  0  0  0  0  0  0  0  0  0  0  0
  -10.8830  -33.5670   22.0849 C   0  0  0  0  0  0  0  0  0  0  0  0
  -12.1144  -33.1433   21.7016 C   0  0  0  0  0  0  0  0  0  0  0  0
  -13.1543  -33.9032   22.0646 N   0  0  0  0  0  0  0  0  0  0  0  0
  -14.3493  -33.5847   21.5452 C   0  0  0  0  0  0  0  0  0  0  0  0
  -14.5510  -32.5143   20.6933 C   0  0  0  0  0  0  0  0  0  0  0  0
  -13.4681  -31.7003   20.3713 C   0  0  0  0  0  0  0  0  0  0  0  0
  -12.2012  -31.9964   20.8788 C   0  0  0  0  0  0  0  0  0  0  0  0
  -11.0495  -31.2373   20.5158 C   0  0  0  0  0  0  0  0  0  0  0  0
   -5.0488  -29.7911   16.6731 N   0  0  0  0  0  0  0  0  0  0  0  0
   -3.8620  -29.6186   15.7136 C   0  0  0  0  0  0  0  0  0  0  0  0
   -3.5580  -28.4281   14.8456 C   0  0  0  0  0  0  0  0  0  0  0  0
   -4.5103  -27.8172   14.1403 C   0  0  0  0  0  0  0  0  0  0  0  0
   -4.2732  -26.8342   12.9875 C   0  0  0  0  0  0  0  0  0  0  0  0
   -3.0739  -26.0806   13.1283 O   0  0  0  0  0  0  0  0  0  0  0  0
   -5.8696  -28.3409   14.5241 C   0  0  0  0  0  0  0  0  0  0  0  0
   -5.8401  -29.7185   15.3495 C   0  0  0  0  0  0  0  0  0  0  0  0
   -7.3383  -30.8729   17.8209 H   0  0  0  0  0  0  0  0  0  0  0  0
   -6.6704  -28.8855   18.1973 H   0  0  0  0  0  0  0  0  0  0  0  0
   -7.7860  -32.0575   20.1607 H   0  0  0  0  0  0  0  0  0  0  0  0
   -8.7679  -30.5561   19.4725 H   0  0  0  0  0  0  0  0  0  0  0  0
   -8.8557  -33.4645   21.8033 H   0  0  0  0  0  0  0  0  0  0  0  0
  -10.7782  -34.4805   22.6637 H   0  0  0  0  0  0  0  0  0  0  0  0
  -15.1706  -34.2348   21.8329 H   0  0  0  0  0  0  0  0  0  0  0  0
  -15.5378  -32.3101   20.2921 H   0  0  0  0  0  0  0  0  0  0  0  0
  -13.6124  -30.8623   19.6949 H   0  0  0  0  0  0  0  0  0  0  0  0
  -11.2003  -30.4063   19.8431 H   0  0  0  0  0  0  0  0  0  0  0  0
   -3.6685  -30.5620   15.1735 H   0  0  0  0  0  0  0  0  0  0  0  0
   -3.0262  -29.6301   16.4301 H   0  0  0  0  0  0  0  0  0  0  0  0
   -2.5124  -28.2261   14.6319 H   0  0  0  0  0  0  0  0  0  0  0  0
   -5.1122  -26.1432   12.8910 H   0  0  0  0  0  0  0  0  0  0  0  0
   -4.2135  -27.4018   12.0525 H   0  0  0  0  0  0  0  0  0  0  0  0
   -3.0811  -25.3931   12.4398 H   0  0  0  0  0  0  0  0  0  0  0  0
   -6.3757  -27.5954   15.1464 H   0  0  0  0  0  0  0  0  0  0  0  0
   -6.4752  -28.5036   13.6254 H   0  0  0  0  0  0  0  0  0  0  0  0
   -6.8849  -29.8793   15.6499 H   0  0  0  0  0  0  0  0  0  0  0  0
   -5.6483  -30.5898   14.6987 H   0  0  0  0  0  0  0  0  0  0  0  0
  1  2  2  0
  2  3  1  0
  3  4  1  0
  3  5  1  0
  5  6  1  0
  6  7  2  0
  7  8  1  0
  8  9  2  0
  9 10  1  0
 10 11  2  0
 11 12  1  0
 12 13  2  0
 13 14  1  0
 14 15  2  0
  2 16  1  0
 16 17  1  0
 17 18  1  0
 18 19  2  0
 19 20  1  0
 20 21  1  0
 19 22  1  0
 22 23  1  0
 15  6  1  0
 23 16  1  0
 14  9  1  0
  3 24  1  0
  4 25  1  0
  5 26  1  0
  5 27  1  0
  7 28  1  0
  8 29  1  0
 11 30  1  0
 12 31  1  0
 13 32  1  0
 15 33  1  0
 17 34  1  0
 17 35  1  0
 18 36  1  0
 20 37  1  0
 20 38  1  0
 21 39  1  0
 22 40  1  0
 22 41  1  0
 23 42  1  0
 23 43  1  0
M  END
>  <Energy>  (524) 
388.51278075443633

>  <compound_id>  (524) 
62152

>  <target_id>  (524) 
1

>  <reference_id>  (524) 
68

>  <inspiration_ids>  (524) 
[85, 68]

>  <energy_score>  (524) 
287.61915488836576

>  <distance_score>  (524) 
10.678538073726925

>  <path>  (524) 
/opt/xchem-fragalysis-2/maxwin/BulkDock/SCRATCH/511021/C62152-P68/C62152-P68.minimised.mol

>  <scratch_subdir>  (524) 
/opt/xchem-fragalysis-2/maxwin/BulkDock/SCRATCH/511021/C62152-P68

>  <fragmenstein_runtime>  (524) 
16.23339343070984

>  <fragmenstein_outcome>  (524) 
too moved

>  <fragmenstein_mode>  (524) 
expansion

>  <fragmenstein_error>  (524) 


$$$$
C62153-P85
     RDKit          3D

 43 45  0  0  0  0  0  0  0  0999 V2000
   -4.0246  -27.3430   21.7478 O   0  0  0  0  0  0  0  0  0  0  0  0
   -3.3282  -27.9999   22.4780 C   0  0  0  0  0  0  0  0  0  0  0  0
   -3.9846  -29.2153   23.2421 C   0  0  0  0  0  0  0  0  0  0  0  0
   -3.0368  -29.9541   24.0059 O   0  0  0  0  0  0  0  0  0  0  0  0
   -4.7040  -30.1291   22.1743 C   0  0  0  0  0  0  0  0  0  0  0  0
   -5.3165  -31.4728   22.5552 C   0  0  0  0  0  0  0  0  0  0  0  0
   -4.5358  -32.5009   23.0884 C   0  0  0  0  0  0  0  0  0  0  0  0
   -5.0897  -33.7569   23.3807 C   0  0  0  0  0  0  0  0  0  0  0  0
   -6.4231  -34.0460   23.1477 C   0  0  0  0  0  0  0  0  0  0  0  0
   -6.8909  -35.2749   23.4345 N   0  0  0  0  0  0  0  0  0  0  0  0
   -8.1938  -35.5229   23.1877 C   0  0  0  0  0  0  0  0  0  0  0  0
   -9.0658  -34.5920   22.6550 C   0  0  0  0  0  0  0  0  0  0  0  0
   -8.5748  -33.3237   22.3623 C   0  0  0  0  0  0  0  0  0  0  0  0
   -7.2280  -33.0246   22.6046 C   0  0  0  0  0  0  0  0  0  0  0  0
   -6.6728  -31.7556   22.3108 C   0  0  0  0  0  0  0  0  0  0  0  0
   -1.9043  -27.9362   22.7274 N   0  0  0  0  0  0  0  0  0  0  0  0
   -1.6182  -26.9836   23.9015 C   0  0  0  0  0  0  0  0  0  0  0  0
   -1.9171  -25.4937   23.6829 C   0  0  0  0  0  0  0  0  0  0  0  0
   -1.7474  -24.8836   22.5028 C   0  0  0  0  0  0  0  0  0  0  0  0
   -1.2148  -25.7280   21.4115 C   0  0  0  0  0  0  0  0  0  0  0  0
   -0.7778  -27.0737   22.0451 C   0  0  0  0  0  0  0  0  0  0  0  0
   -0.1768  -27.9644   20.9209 C   0  0  0  0  0  0  0  0  0  0  0  0
    1.0177  -27.3855   20.4064 O   0  0  0  0  0  0  0  0  0  0  0  0
   -4.7131  -28.7918   23.9368 H   0  0  0  0  0  0  0  0  0  0  0  0
   -2.2009  -29.9061   23.5031 H   0  0  0  0  0  0  0  0  0  0  0  0
   -5.4771  -29.5218   21.6842 H   0  0  0  0  0  0  0  0  0  0  0  0
   -3.9733  -30.3525   21.3832 H   0  0  0  0  0  0  0  0  0  0  0  0
   -3.4755  -32.3493   23.2782 H   0  0  0  0  0  0  0  0  0  0  0  0
   -4.4525  -34.5353   23.7947 H   0  0  0  0  0  0  0  0  0  0  0  0
   -8.5299  -36.5239   23.4416 H   0  0  0  0  0  0  0  0  0  0  0  0
  -10.1055  -34.8436   22.4821 H   0  0  0  0  0  0  0  0  0  0  0  0
   -9.2423  -32.5721   21.9498 H   0  0  0  0  0  0  0  0  0  0  0  0
   -7.3123  -30.9843   21.8828 H   0  0  0  0  0  0  0  0  0  0  0  0
   -0.6552  -27.1827   24.3963 H   0  0  0  0  0  0  0  0  0  0  0  0
   -2.3487  -27.2930   24.6651 H   0  0  0  0  0  0  0  0  0  0  0  0
   -2.2803  -24.9311   24.5390 H   0  0  0  0  0  0  0  0  0  0  0  0
   -1.9711  -23.8352   22.3449 H   0  0  0  0  0  0  0  0  0  0  0  0
   -0.3671  -25.2264   20.9335 H   0  0  0  0  0  0  0  0  0  0  0  0
   -1.9943  -25.8747   20.6701 H   0  0  0  0  0  0  0  0  0  0  0  0
    0.1199  -26.9252   22.6750 H   0  0  0  0  0  0  0  0  0  0  0  0
    0.0745  -28.9536   21.3197 H   0  0  0  0  0  0  0  0  0  0  0  0
   -0.8725  -28.0976   20.0982 H   0  0  0  0  0  0  0  0  0  0  0  0
    1.3556  -27.9820   19.7155 H   0  0  0  0  0  0  0  0  0  0  0  0
  1  2  2  0
  2  3  1  0
  3  4  1  0
  3  5  1  0
  5  6  1  0
  6  7  2  0
  7  8  1  0
  8  9  2  0
  9 10  1  0
 10 11  2  0
 11 12  1  0
 12 13  2  0
 13 14  1  0
 14 15  2  0
  2 16  1  0
 16 17  1  0
 17 18  1  0
 18 19  2  0
 19 20  1  0
 20 21  1  0
 21 22  1  0
 22 23  1  0
 15  6  1  0
 21 16  1  0
 14  9  1  0
  3 24  1  0
  4 25  1  0
  5 26  1  0
  5 27  1  0
  7 28  1  0
  8 29  1  0
 11 30  1  0
 12 31  1  0
 13 32  1  0
 15 33  1  0
 17 34  1  0
 17 35  1  0
 18 36  1  0
 19 37  1  0
 20 38  1  0
 20 39  1  0
 21 40  1  0
 22 41  1  0
 22 42  1  0
 23 43  1  0
M  END
>  <Energy>  (525) 
175.87501344046132

>  <compound_id>  (525) 
62153

>  <target_id>  (525) 
1

>  <reference_id>  (525) 
85

>  <inspiration_ids>  (525) 
[85, 68]

>  <energy_score>  (525) 
40.18963372676845

>  <distance_score>  (525) 
11.069417263795803

>  <path>  (525) 
/opt/xchem-fragalysis-2/maxwin/BulkDock/SCRATCH/511021/C62153-P85/C62153-P85.minimised.mol

>  <scratch_subdir>  (525) 
/opt/xchem-fragalysis-2/maxwin/BulkDock/SCRATCH/511021/C62153-P85

>  <fragmenstein_runtime>  (525) 
7.552932500839233

>  <fragmenstein_outcome>  (525) 
too moved

>  <fragmenstein_mode>  (525) 
expansion

>  <fragmenstein_error>  (525) 


$$$$
C62153-P68
     RDKit          3D

 43 45  0  0  0  0  0  0  0  0999 V2000
   -7.4645  -31.6483   16.7218 O   0  0  0  0  0  0  0  0  0  0  0  0
   -6.6936  -30.8675   17.2147 C   0  0  0  0  0  0  0  0  0  0  0  0
   -6.7718  -30.6906   18.9137 C   0  0  0  0  0  0  0  0  0  0  0  0
   -5.4551  -30.7289   19.4076 O   0  0  0  0  0  0  0  0  0  0  0  0
   -8.2483  -31.0586   20.0296 C   0  0  0  0  0  0  0  0  0  0  0  0
   -9.6335  -32.0216   20.9694 C   0  0  0  0  0  0  0  0  0  0  0  0
  -10.9323  -31.4802   20.9091 C   0  0  0  0  0  0  0  0  0  0  0  0
  -12.0153  -32.1179   21.5519 C   0  0  0  0  0  0  0  0  0  0  0  0
  -11.8820  -33.2914   22.2906 C   0  0  0  0  0  0  0  0  0  0  0  0
  -12.9345  -33.8530   22.9165 N   0  0  0  0  0  0  0  0  0  0  0  0
  -12.7360  -35.0145   23.5866 C   0  0  0  0  0  0  0  0  0  0  0  0
  -11.5206  -35.6589   23.6812 C   0  0  0  0  0  0  0  0  0  0  0  0
  -10.4414  -35.0689   23.0497 C   0  0  0  0  0  0  0  0  0  0  0  0
  -10.6157  -33.8687   22.3432 C   0  0  0  0  0  0  0  0  0  0  0  0
   -9.5414  -33.2512   21.6832 C   0  0  0  0  0  0  0  0  0  0  0  0
   -5.7498  -29.9533   16.5882 N   0  0  0  0  0  0  0  0  0  0  0  0
   -4.3794  -30.6423   16.4139 C   0  0  0  0  0  0  0  0  0  0  0  0
   -3.1495  -29.8307   16.0280 C   0  0  0  0  0  0  0  0  0  0  0  0
   -3.2207  -28.7854   15.2024 C   0  0  0  0  0  0  0  0  0  0  0  0
   -4.5749  -28.4355   14.7438 C   0  0  0  0  0  0  0  0  0  0  0  0
   -5.5222  -29.6119   15.1043 C   0  0  0  0  0  0  0  0  0  0  0  0
   -5.6976  -30.7198   14.0074 C   0  0  0  0  0  0  0  0  0  0  0  0
   -4.4609  -31.2437   13.5376 O   0  0  0  0  0  0  0  0  0  0  0  0
   -6.8087  -29.6141   19.0305 H   0  0  0  0  0  0  0  0  0  0  0  0
   -4.9681  -30.0322   18.9417 H   0  0  0  0  0  0  0  0  0  0  0  0
   -8.9818  -30.6371   19.4181 H   0  0  0  0  0  0  0  0  0  0  0  0
   -8.2259  -30.1496   20.5533 H   0  0  0  0  0  0  0  0  0  0  0  0
  -11.1415  -30.5981   20.3161 H   0  0  0  0  0  0  0  0  0  0  0  0
  -13.0073  -31.6829   21.4583 H   0  0  0  0  0  0  0  0  0  0  0  0
  -13.6231  -35.4251   24.0610 H   0  0  0  0  0  0  0  0  0  0  0  0
  -11.4169  -36.5876   24.2292 H   0  0  0  0  0  0  0  0  0  0  0  0
   -9.4665  -35.5469   23.1080 H   0  0  0  0  0  0  0  0  0  0  0  0
   -8.6238  -33.8198   21.7657 H   0  0  0  0  0  0  0  0  0  0  0  0
   -4.4541  -31.6118   15.9020 H   0  0  0  0  0  0  0  0  0  0  0  0
   -4.1356  -30.9805   17.4247 H   0  0  0  0  0  0  0  0  0  0  0  0
   -2.1845  -30.1929   16.3719 H   0  0  0  0  0  0  0  0  0  0  0  0
   -2.3475  -28.2757   14.8282 H   0  0  0  0  0  0  0  0  0  0  0  0
   -4.5824  -28.2572   13.6633 H   0  0  0  0  0  0  0  0  0  0  0  0
   -4.8988  -27.5157   15.2438 H   0  0  0  0  0  0  0  0  0  0  0  0
   -6.5001  -29.1145   14.9681 H   0  0  0  0  0  0  0  0  0  0  0  0
   -6.3148  -31.5465   14.3711 H   0  0  0  0  0  0  0  0  0  0  0  0
   -6.2022  -30.2815   13.1384 H   0  0  0  0  0  0  0  0  0  0  0  0
   -4.6729  -31.9180   12.8684 H   0  0  0  0  0  0  0  0  0  0  0  0
  1  2  2  0
  2  3  1  0
  3  4  1  0
  3  5  1  0
  5  6  1  0
  6  7  2  0
  7  8  1  0
  8  9  2  0
  9 10  1  0
 10 11  2  0
 11 12  1  0
 12 13  2  0
 13 14  1  0
 14 15  2  0
  2 16  1  0
 16 17  1  0
 17 18  1  0
 18 19  2  0
 19 20  1  0
 20 21  1  0
 21 22  1  0
 22 23  1  0
 15  6  1  0
 21 16  1  0
 14  9  1  0
  3 24  1  0
  4 25  1  0
  5 26  1  0
  5 27  1  0
  7 28  1  0
  8 29  1  0
 11 30  1  0
 12 31  1  0
 13 32  1  0
 15 33  1  0
 17 34  1  0
 17 35  1  0
 18 36  1  0
 19 37  1  0
 20 38  1  0
 20 39  1  0
 21 40  1  0
 22 41  1  0
 22 42  1  0
 23 43  1  0
M  END
>  <Energy>  (526) 
331.8381890366469

>  <compound_id>  (526) 
62153

>  <target_id>  (526) 
1

>  <reference_id>  (526) 
68

>  <inspiration_ids>  (526) 
[85, 68]

>  <energy_score>  (526) 
196.15280932295934

>  <distance_score>  (526) 
9.967955849558832

>  <path>  (526) 
/opt/xchem-fragalysis-2/maxwin/BulkDock/SCRATCH/511021/C62153-P68/C62153-P68.minimised.mol

>  <scratch_subdir>  (526) 
/opt/xchem-fragalysis-2/maxwin/BulkDock/SCRATCH/511021/C62153-P68

>  <fragmenstein_runtime>  (526) 
12.419984102249146

>  <fragmenstein_outcome>  (526) 
too moved

>  <fragmenstein_mode>  (526) 
expansion

>  <fragmenstein_error>  (526) 


$$$$
C62157-P85
     RDKit          3D

 43 45  0  0  0  0  0  0  0  0999 V2000
    2.4152  -17.2894    9.0965 C   0  0  0  0  0  0  0  0  0  0  0  0
    1.6904  -17.7006   10.2470 O   0  0  0  0  0  0  0  0  0  0  0  0
    2.4175  -18.6272   11.0617 C   0  0  0  0  0  0  0  0  0  0  0  0
    1.5614  -19.2159   12.1545 C   0  0  0  0  0  0  0  0  0  0  0  0
    1.6333  -20.3826   12.7518 C   0  0  0  0  0  0  0  0  0  0  0  0
    0.4264  -20.5059   13.7520 C   0  0  0  0  0  0  0  0  0  0  0  0
   -1.5946  -20.3486   13.5127 N   0  0  0  0  0  0  0  0  0  0  0  0
   -2.8756  -21.8334   14.1052 C   0  0  0  0  0  0  0  0  0  0  0  0
   -3.4548  -22.0232   15.1383 O   0  0  0  0  0  0  0  0  0  0  0  0
   -3.1145  -23.3091   12.8716 C   0  0  0  0  0  0  0  0  0  0  0  0
   -3.4116  -24.7226   12.7068 C   0  0  0  0  0  0  0  0  0  0  0  0
   -3.5736  -26.2731   13.2290 C   0  0  0  0  0  0  0  0  0  0  0  0
   -3.4378  -27.3015   12.2827 C   0  0  0  0  0  0  0  0  0  0  0  0
   -3.6838  -28.6890   12.5705 C   0  0  0  0  0  0  0  0  0  0  0  0
   -4.1548  -29.1622   13.7929 C   0  0  0  0  0  0  0  0  0  0  0  0
   -4.4051  -30.4819   14.0167 N   0  0  0  0  0  0  0  0  0  0  0  0
   -4.9281  -30.8521   15.2072 C   0  0  0  0  0  0  0  0  0  0  0  0
   -5.2435  -29.9502   16.1941 C   0  0  0  0  0  0  0  0  0  0  0  0
   -4.9709  -28.6034   15.9493 C   0  0  0  0  0  0  0  0  0  0  0  0
   -4.3662  -28.1805   14.7527 C   0  0  0  0  0  0  0  0  0  0  0  0
   -3.9920  -26.8093   14.4756 C   0  0  0  0  0  0  0  0  0  0  0  0
   -1.1531  -19.1154   14.1381 C   0  0  0  0  0  0  0  0  0  0  0  0
    0.1321  -18.9137   12.4595 C   0  0  0  0  0  0  0  0  0  0  0  0
    3.3480  -16.7986    9.3891 H   0  0  0  0  0  0  0  0  0  0  0  0
    2.6281  -18.1481    8.4528 H   0  0  0  0  0  0  0  0  0  0  0  0
    1.8035  -16.5782    8.5363 H   0  0  0  0  0  0  0  0  0  0  0  0
    2.7927  -19.4407   10.4287 H   0  0  0  0  0  0  0  0  0  0  0  0
    3.2780  -18.1092   11.4984 H   0  0  0  0  0  0  0  0  0  0  0  0
    2.4559  -21.0809   12.6978 H   0  0  0  0  0  0  0  0  0  0  0  0
    0.8989  -19.5669   14.2611 H   0  0  0  0  0  0  0  0  0  0  0  0
    0.8797  -21.2698   14.3917 H   0  0  0  0  0  0  0  0  0  0  0  0
   -3.4582  -22.7836   12.0092 H   0  0  0  0  0  0  0  0  0  0  0  0
   -3.7047  -24.8589   11.6544 H   0  0  0  0  0  0  0  0  0  0  0  0
   -3.1153  -27.0600   11.2696 H   0  0  0  0  0  0  0  0  0  0  0  0
   -3.5201  -29.4139   11.7739 H   0  0  0  0  0  0  0  0  0  0  0  0
   -5.1099  -31.9148   15.3286 H   0  0  0  0  0  0  0  0  0  0  0  0
   -5.7032  -30.2703   17.1214 H   0  0  0  0  0  0  0  0  0  0  0  0
   -5.2690  -27.8720   16.6931 H   0  0  0  0  0  0  0  0  0  0  0  0
   -4.0279  -26.1537   15.3319 H   0  0  0  0  0  0  0  0  0  0  0  0
   -2.0116  -18.4370   14.2212 H   0  0  0  0  0  0  0  0  0  0  0  0
   -0.6427  -18.5823   15.0041 H   0  0  0  0  0  0  0  0  0  0  0  0
   -0.0689  -19.7559   11.8566 H   0  0  0  0  0  0  0  0  0  0  0  0
   -0.0446  -18.0148   11.8250 H   0  0  0  0  0  0  0  0  0  0  0  0
  1  2  1  0
  2  3  1  0
  3  4  1  0
  4  5  2  0
  5  6  1  0
  6  7  1  0
  7  8  1  0
  8  9  2  0
  8 10  1  0
 10 11  2  3
 11 12  1  0
 12 13  2  0
 13 14  1  0
 14 15  2  0
 15 16  1  0
 16 17  2  0
 17 18  1  0
 18 19  2  0
 19 20  1  0
 20 21  2  0
  7 22  1  0
 22 23  1  0
 23  4  1  0
 21 12  1  0
 20 15  1  0
  1 24  1  0
  1 25  1  0
  1 26  1  0
  3 27  1  0
  3 28  1  0
  5 29  1  0
  6 30  1  0
  6 31  1  0
 10 32  1  0
 11 33  1  0
 13 34  1  0
 14 35  1  0
 17 36  1  0
 18 37  1  0
 19 38  1  0
 21 39  1  0
 22 40  1  0
 22 41  1  0
 23 42  1  0
 23 43  1  0
M  END
>  <Energy>  (527) 
713.89957854288332

>  <compound_id>  (527) 
62157

>  <target_id>  (527) 
1

>  <reference_id>  (527) 
85

>  <inspiration_ids>  (527) 
[85, 68]

>  <energy_score>  (527) 
631.6955957090885

>  <distance_score>  (527) 
10.588720231261878

>  <path>  (527) 
/opt/xchem-fragalysis-2/maxwin/BulkDock/SCRATCH/511021/C62157-P85/C62157-P85.minimised.mol

>  <scratch_subdir>  (527) 
/opt/xchem-fragalysis-2/maxwin/BulkDock/SCRATCH/511021/C62157-P85

>  <fragmenstein_runtime>  (527) 
7.349788188934326

>  <fragmenstein_outcome>  (527) 
too moved

>  <fragmenstein_mode>  (527) 
expansion

>  <fragmenstein_error>  (527) 


$$$$
C62157-P68
     RDKit          3D

 43 45  0  0  0  0  0  0  0  0999 V2000
    2.8372  -19.7394   13.1097 C   0  0  0  0  0  0  0  0  0  0  0  0
    2.7104  -20.9329   13.8817 O   0  0  0  0  0  0  0  0  0  0  0  0
    2.3057  -20.7199   15.2410 C   0  0  0  0  0  0  0  0  0  0  0  0
    0.9627  -21.3973   15.5159 C   0  0  0  0  0  0  0  0  0  0  0  0
    0.2837  -22.4665   16.6027 C   0  0  0  0  0  0  0  0  0  0  0  0
   -1.5489  -23.3273   16.4499 C   0  0  0  0  0  0  0  0  0  0  0  0
   -3.0808  -23.7532   15.0621 N   0  0  0  0  0  0  0  0  0  0  0  0
   -3.1156  -25.5580   14.7385 C   0  0  0  0  0  0  0  0  0  0  0  0
   -2.5559  -26.2095   13.8771 O   0  0  0  0  0  0  0  0  0  0  0  0
   -4.1703  -26.6723   15.7732 C   0  0  0  0  0  0  0  0  0  0  0  0
   -4.4571  -28.0358   15.9412 C   0  0  0  0  0  0  0  0  0  0  0  0
   -5.3309  -28.9974   16.9832 C   0  0  0  0  0  0  0  0  0  0  0  0
   -5.6235  -30.2716   16.5705 C   0  0  0  0  0  0  0  0  0  0  0  0
   -6.3829  -31.1806   17.4196 C   0  0  0  0  0  0  0  0  0  0  0  0
   -6.9851  -31.1059   18.8566 C   0  0  0  0  0  0  0  0  0  0  0  0
   -7.9220  -32.0804   20.0416 N   0  0  0  0  0  0  0  0  0  0  0  0
   -9.1943  -32.1935   20.9179 C   0  0  0  0  0  0  0  0  0  0  0  0
   -9.6246  -30.9840   20.7223 C   0  0  0  0  0  0  0  0  0  0  0  0
   -8.2027  -30.1613   20.0254 C   0  0  0  0  0  0  0  0  0  0  0  0
   -6.7932  -29.9285   19.2332 C   0  0  0  0  0  0  0  0  0  0  0  0
   -5.8772  -28.8672   18.3256 C   0  0  0  0  0  0  0  0  0  0  0  0
   -2.2720  -22.3868   13.9833 C   0  0  0  0  0  0  0  0  0  0  0  0
   -0.5701  -20.8780   14.1191 C   0  0  0  0  0  0  0  0  0  0  0  0
    3.1956  -20.0152   12.1145 H   0  0  0  0  0  0  0  0  0  0  0  0
    1.8689  -19.2523   13.0040 H   0  0  0  0  0  0  0  0  0  0  0  0
    3.5678  -19.0694   13.5715 H   0  0  0  0  0  0  0  0  0  0  0  0
    2.2657  -19.6521   15.4840 H   0  0  0  0  0  0  0  0  0  0  0  0
    3.0610  -21.1817   15.8844 H   0  0  0  0  0  0  0  0  0  0  0  0
    0.8873  -22.8660   17.4153 H   0  0  0  0  0  0  0  0  0  0  0  0
   -2.0315  -22.5562   17.0330 H   0  0  0  0  0  0  0  0  0  0  0  0
   -1.6566  -23.9473   17.4429 H   0  0  0  0  0  0  0  0  0  0  0  0
   -4.7084  -26.1909   16.5329 H   0  0  0  0  0  0  0  0  0  0  0  0
   -3.9465  -28.6848   15.2238 H   0  0  0  0  0  0  0  0  0  0  0  0
   -5.3473  -30.6162   15.5773 H   0  0  0  0  0  0  0  0  0  0  0  0
   -6.6891  -32.0467   16.8300 H   0  0  0  0  0  0  0  0  0  0  0  0
   -9.4820  -33.0691   21.4599 H   0  0  0  0  0  0  0  0  0  0  0  0
  -10.4376  -30.5108   21.2514 H   0  0  0  0  0  0  0  0  0  0  0  0
   -8.7751  -30.5651   19.1954 H   0  0  0  0  0  0  0  0  0  0  0  0
   -5.8593  -27.8856   18.7525 H   0  0  0  0  0  0  0  0  0  0  0  0
   -3.1457  -21.7051   14.1424 H   0  0  0  0  0  0  0  0  0  0  0  0
   -2.4502  -22.9675   13.0265 H   0  0  0  0  0  0  0  0  0  0  0  0
   -1.1461  -19.8598   14.1094 H   0  0  0  0  0  0  0  0  0  0  0  0
    0.1500  -20.4112   13.3281 H   0  0  0  0  0  0  0  0  0  0  0  0
  1  2  1  0
  2  3  1  0
  3  4  1  0
  4  5  2  0
  5  6  1  0
  6  7  1  0
  7  8  1  0
  8  9  2  0
  8 10  1  0
 10 11  2  3
 11 12  1  0
 12 13  2  0
 13 14  1  0
 14 15  2  0
 15 16  1  0
 16 17  2  0
 17 18  1  0
 18 19  2  0
 19 20  1  0
 20 21  2  0
  7 22  1  0
 22 23  1  0
 23  4  1  0
 21 12  1  0
 20 15  1  0
  1 24  1  0
  1 25  1  0
  1 26  1  0
  3 27  1  0
  3 28  1  0
  5 29  1  0
  6 30  1  0
  6 31  1  0
 10 32  1  0
 11 33  1  0
 13 34  1  0
 14 35  1  0
 17 36  1  0
 18 37  1  0
 19 38  1  0
 21 39  1  0
 22 40  1  0
 22 41  1  0
 23 42  1  0
 23 43  1  0
M  END
>  <Energy>  (528) 
1180.955449528522

>  <compound_id>  (528) 
62157

>  <target_id>  (528) 
1

>  <reference_id>  (528) 
68

>  <inspiration_ids>  (528) 
[85, 68]

>  <energy_score>  (528) 
1098.7514666947286

>  <distance_score>  (528) 
9.049944319488834

>  <path>  (528) 
/opt/xchem-fragalysis-2/maxwin/BulkDock/SCRATCH/511021/C62157-P68/C62157-P68.minimised.mol

>  <scratch_subdir>  (528) 
/opt/xchem-fragalysis-2/maxwin/BulkDock/SCRATCH/511021/C62157-P68

>  <fragmenstein_runtime>  (528) 
20.843284368515015

>  <fragmenstein_outcome>  (528) 
too moved

>  <fragmenstein_mode>  (528) 
expansion

>  <fragmenstein_error>  (528) 


$$$$
C62159-P85
     RDKit          3D

 42 44  0  0  0  0  0  0  0  0999 V2000
   -2.2292  -26.6800   11.2549 C   0  0  0  0  0  0  0  0  0  0  0  0
   -2.6101  -27.7264   12.2595 C   0  0  0  0  0  0  0  0  0  0  0  0
   -1.8262  -28.7125   12.7015 C   0  0  0  0  0  0  0  0  0  0  0  0
   -2.2188  -29.6162   13.8553 C   0  0  0  0  0  0  0  0  0  0  0  0
   -3.6278  -30.0164   14.3093 N   0  0  0  0  0  0  0  0  0  0  0  0
   -4.6740  -30.6897   13.6126 C   0  0  0  0  0  0  0  0  0  0  0  0
   -4.7526  -31.0339   12.4674 O   0  0  0  0  0  0  0  0  0  0  0  0
   -5.9174  -30.8762   14.5628 C   0  0  0  0  0  0  0  0  0  0  0  0
   -6.9173  -30.3356   14.1858 O   0  0  0  0  0  0  0  0  0  0  0  0
   -5.6351  -31.5897   15.7886 N   0  0  0  0  0  0  0  0  0  0  0  0
   -6.4397  -31.7871   16.9759 C   0  0  0  0  0  0  0  0  0  0  0  0
   -6.3515  -32.9916   17.8853 C   0  0  0  0  0  0  0  0  0  0  0  0
   -5.9451  -34.2578   17.4855 C   0  0  0  0  0  0  0  0  0  0  0  0
   -6.0061  -35.3416   18.3865 C   0  0  0  0  0  0  0  0  0  0  0  0
   -6.4806  -35.2184   19.6909 C   0  0  0  0  0  0  0  0  0  0  0  0
   -6.5200  -36.2923   20.5060 N   0  0  0  0  0  0  0  0  0  0  0  0
   -7.0011  -36.1263   21.7577 C   0  0  0  0  0  0  0  0  0  0  0  0
   -7.4560  -34.9189   22.2503 C   0  0  0  0  0  0  0  0  0  0  0  0
   -7.4107  -33.8127   21.4090 C   0  0  0  0  0  0  0  0  0  0  0  0
   -6.9153  -33.9472   20.1034 C   0  0  0  0  0  0  0  0  0  0  0  0
   -6.8499  -32.8588   19.2052 C   0  0  0  0  0  0  0  0  0  0  0  0
   -3.8437  -28.5051   14.2470 C   0  0  0  0  0  0  0  0  0  0  0  0
   -3.9334  -27.6986   12.9204 C   0  0  0  0  0  0  0  0  0  0  0  0
   -1.2275  -26.8694   10.8596 H   0  0  0  0  0  0  0  0  0  0  0  0
   -2.2373  -25.6944   11.7254 H   0  0  0  0  0  0  0  0  0  0  0  0
   -2.9357  -26.6822   10.4197 H   0  0  0  0  0  0  0  0  0  0  0  0
   -0.8191  -28.8304   12.3080 H   0  0  0  0  0  0  0  0  0  0  0  0
   -1.6330  -29.3721   14.7506 H   0  0  0  0  0  0  0  0  0  0  0  0
   -1.8207  -30.5967   13.5516 H   0  0  0  0  0  0  0  0  0  0  0  0
   -4.6533  -31.8438   15.8047 H   0  0  0  0  0  0  0  0  0  0  0  0
   -6.1782  -30.9194   17.5886 H   0  0  0  0  0  0  0  0  0  0  0  0
   -7.4829  -31.6932   16.6558 H   0  0  0  0  0  0  0  0  0  0  0  0
   -5.5937  -34.4331   16.4710 H   0  0  0  0  0  0  0  0  0  0  0  0
   -5.6793  -36.3240   18.0495 H   0  0  0  0  0  0  0  0  0  0  0  0
   -7.0121  -37.0227   22.3711 H   0  0  0  0  0  0  0  0  0  0  0  0
   -7.8369  -34.8390   23.2626 H   0  0  0  0  0  0  0  0  0  0  0  0
   -7.7636  -32.8516   21.7739 H   0  0  0  0  0  0  0  0  0  0  0  0
   -7.2115  -31.8838   19.5337 H   0  0  0  0  0  0  0  0  0  0  0  0
   -4.8554  -28.3910   14.6699 H   0  0  0  0  0  0  0  0  0  0  0  0
   -3.2493  -28.0030   15.0191 H   0  0  0  0  0  0  0  0  0  0  0  0
   -4.7018  -28.1128   12.2589 H   0  0  0  0  0  0  0  0  0  0  0  0
   -4.2118  -26.6675   13.1571 H   0  0  0  0  0  0  0  0  0  0  0  0
  1  2  1  0
  2  3  2  0
  3  4  1  0
  4  5  1  0
  5  6  1  0
  6  7  2  0
  6  8  1  0
  8  9  2  0
  8 10  1  0
 10 11  1  0
 11 12  1  0
 12 13  2  0
 13 14  1  0
 14 15  2  0
 15 16  1  0
 16 17  2  0
 17 18  1  0
 18 19  2  0
 19 20  1  0
 20 21  2  0
  5 22  1  0
 22 23  1  0
 23  2  1  0
 21 12  1  0
 20 15  1  0
  1 24  1  0
  1 25  1  0
  1 26  1  0
  3 27  1  0
  4 28  1  0
  4 29  1  0
 10 30  1  0
 11 31  1  0
 11 32  1  0
 13 33  1  0
 14 34  1  0
 17 35  1  0
 18 36  1  0
 19 37  1  0
 21 38  1  0
 22 39  1  0
 22 40  1  0
 23 41  1  0
 23 42  1  0
M  END
>  <Energy>  (529) 
162.04519765610016

>  <compound_id>  (529) 
62159

>  <target_id>  (529) 
1

>  <reference_id>  (529) 
85

>  <inspiration_ids>  (529) 
[85, 68]

>  <energy_score>  (529) 
63.33662065707685

>  <distance_score>  (529) 
9.648613173185696

>  <path>  (529) 
/opt/xchem-fragalysis-2/maxwin/BulkDock/SCRATCH/511021/C62159-P85/C62159-P85.minimised.mol

>  <scratch_subdir>  (529) 
/opt/xchem-fragalysis-2/maxwin/BulkDock/SCRATCH/511021/C62159-P85

>  <fragmenstein_runtime>  (529) 
7.80233907699585

>  <fragmenstein_outcome>  (529) 
too moved

>  <fragmenstein_mode>  (529) 
expansion

>  <fragmenstein_error>  (529) 


$$$$
C62159-P68
     RDKit          3D

 42 44  0  0  0  0  0  0  0  0999 V2000
   -2.9298  -26.6257   12.9754 C   0  0  0  0  0  0  0  0  0  0  0  0
   -3.5305  -27.7773   13.7442 C   0  0  0  0  0  0  0  0  0  0  0  0
   -2.9378  -28.9429   14.0243 C   0  0  0  0  0  0  0  0  0  0  0  0
   -3.7238  -30.0921   14.6434 C   0  0  0  0  0  0  0  0  0  0  0  0
   -4.7210  -29.8599   15.7729 N   0  0  0  0  0  0  0  0  0  0  0  0
   -5.6223  -30.7859   16.4476 C   0  0  0  0  0  0  0  0  0  0  0  0
   -5.8681  -31.9420   16.2204 O   0  0  0  0  0  0  0  0  0  0  0  0
   -6.3029  -30.1815   17.7562 C   0  0  0  0  0  0  0  0  0  0  0  0
   -6.0317  -29.0396   17.9973 O   0  0  0  0  0  0  0  0  0  0  0  0
   -7.2437  -31.1025   18.4173 N   0  0  0  0  0  0  0  0  0  0  0  0
   -8.2081  -30.9102   19.8445 C   0  0  0  0  0  0  0  0  0  0  0  0
   -9.8784  -31.3782   20.6873 C   0  0  0  0  0  0  0  0  0  0  0  0
  -11.1647  -30.9672   20.3392 C   0  0  0  0  0  0  0  0  0  0  0  0
  -12.3162  -31.6337   20.8514 C   0  0  0  0  0  0  0  0  0  0  0  0
  -12.2733  -32.7428   21.6981 C   0  0  0  0  0  0  0  0  0  0  0  0
  -13.3885  -33.3343   22.1695 N   0  0  0  0  0  0  0  0  0  0  0  0
  -13.2528  -34.4515   22.9272 C   0  0  0  0  0  0  0  0  0  0  0  0
  -12.0420  -35.0194   23.2631 C   0  0  0  0  0  0  0  0  0  0  0  0
  -10.9019  -34.3948   22.7945 C   0  0  0  0  0  0  0  0  0  0  0  0
  -11.0173  -33.2406   22.0037 C   0  0  0  0  0  0  0  0  0  0  0  0
   -9.8929  -32.5964   21.4763 C   0  0  0  0  0  0  0  0  0  0  0  0
   -5.4678  -29.1128   14.6682 C   0  0  0  0  0  0  0  0  0  0  0  0
   -4.9312  -27.7107   14.2440 C   0  0  0  0  0  0  0  0  0  0  0  0
   -3.1138  -25.6890   13.4979 H   0  0  0  0  0  0  0  0  0  0  0  0
   -3.3953  -26.5578   11.9871 H   0  0  0  0  0  0  0  0  0  0  0  0
   -1.8519  -26.7512   12.8390 H   0  0  0  0  0  0  0  0  0  0  0  0
   -1.9156  -29.1407   13.7137 H   0  0  0  0  0  0  0  0  0  0  0  0
   -4.0813  -30.8235   13.8998 H   0  0  0  0  0  0  0  0  0  0  0  0
   -2.9576  -30.6794   15.1740 H   0  0  0  0  0  0  0  0  0  0  0  0
   -7.2777  -31.9651   17.8973 H   0  0  0  0  0  0  0  0  0  0  0  0
   -7.6873  -31.7271   20.2910 H   0  0  0  0  0  0  0  0  0  0  0  0
   -7.9374  -29.9323   20.0934 H   0  0  0  0  0  0  0  0  0  0  0  0
  -11.3722  -30.1836   19.6283 H   0  0  0  0  0  0  0  0  0  0  0  0
  -13.2974  -31.2772   20.5403 H   0  0  0  0  0  0  0  0  0  0  0  0
  -14.1878  -34.8906   23.2652 H   0  0  0  0  0  0  0  0  0  0  0  0
  -11.9895  -35.9152   23.8701 H   0  0  0  0  0  0  0  0  0  0  0  0
   -9.9279  -34.8110   23.0407 H   0  0  0  0  0  0  0  0  0  0  0  0
   -8.9769  -33.1270   21.6661 H   0  0  0  0  0  0  0  0  0  0  0  0
   -5.7665  -29.7493   13.8155 H   0  0  0  0  0  0  0  0  0  0  0  0
   -6.4486  -28.8898   15.1196 H   0  0  0  0  0  0  0  0  0  0  0  0
   -5.5878  -27.3098   13.4662 H   0  0  0  0  0  0  0  0  0  0  0  0
   -4.9667  -27.0616   15.1230 H   0  0  0  0  0  0  0  0  0  0  0  0
  1  2  1  0
  2  3  2  0
  3  4  1  0
  4  5  1  0
  5  6  1  0
  6  7  2  0
  6  8  1  0
  8  9  2  0
  8 10  1  0
 10 11  1  0
 11 12  1  0
 12 13  2  0
 13 14  1  0
 14 15  2  0
 15 16  1  0
 16 17  2  0
 17 18  1  0
 18 19  2  0
 19 20  1  0
 20 21  2  0
  5 22  1  0
 22 23  1  0
 23  2  1  0
 21 12  1  0
 20 15  1  0
  1 24  1  0
  1 25  1  0
  1 26  1  0
  3 27  1  0
  4 28  1  0
  4 29  1  0
 10 30  1  0
 11 31  1  0
 11 32  1  0
 13 33  1  0
 14 34  1  0
 17 35  1  0
 18 36  1  0
 19 37  1  0
 21 38  1  0
 22 39  1  0
 22 40  1  0
 23 41  1  0
 23 42  1  0
M  END
>  <Energy>  (530) 
263.4025663006264

>  <compound_id>  (530) 
62159

>  <target_id>  (530) 
1

>  <reference_id>  (530) 
68

>  <inspiration_ids>  (530) 
[85, 68]

>  <energy_score>  (530) 
164.6939893016031

>  <distance_score>  (530) 
10.031253151396337

>  <path>  (530) 
/opt/xchem-fragalysis-2/maxwin/BulkDock/SCRATCH/511021/C62159-P68/C62159-P68.minimised.mol

>  <scratch_subdir>  (530) 
/opt/xchem-fragalysis-2/maxwin/BulkDock/SCRATCH/511021/C62159-P68

>  <fragmenstein_runtime>  (530) 
22.209737062454224

>  <fragmenstein_outcome>  (530) 
too moved

>  <fragmenstein_mode>  (530) 
expansion

>  <fragmenstein_error>  (530) 


$$$$
C62163-P85
     RDKit          3D

 40 42  0  0  0  0  0  0  0  0999 V2000
    1.6104  -21.1388   15.5715 C   0  0  0  0  0  0  0  0  0  0  0  0
    0.9731  -21.0735   14.1471 N   0  0  0  0  0  0  0  0  0  0  0  0
    2.2579  -21.1302   13.3033 C   0  0  0  0  0  0  0  0  0  0  0  0
    2.3239  -20.6052   11.9324 C   0  0  0  0  0  0  0  0  0  0  0  0
    1.2300  -19.9664   11.5739 C   0  0  0  0  0  0  0  0  0  0  0  0
    0.2103  -19.7364   12.6867 C   0  0  0  0  0  0  0  0  0  0  0  0
   -0.9805  -20.7764   13.7887 C   0  0  0  0  0  0  0  0  0  0  0  0
   -2.5454  -22.4846   13.6983 C   0  0  0  0  0  0  0  0  0  0  0  0
   -3.2724  -24.2254   12.9952 C   0  0  0  0  0  0  0  0  0  0  0  0
   -3.5432  -24.2537   11.8259 O   0  0  0  0  0  0  0  0  0  0  0  0
   -3.4079  -25.4074   14.0793 N   0  0  0  0  0  0  0  0  0  0  0  0
   -3.8475  -26.7963   13.9346 C   0  0  0  0  0  0  0  0  0  0  0  0
   -3.6430  -27.6126   12.8449 C   0  0  0  0  0  0  0  0  0  0  0  0
   -3.9118  -29.0177   12.9423 C   0  0  0  0  0  0  0  0  0  0  0  0
   -4.4316  -29.6579   14.0809 C   0  0  0  0  0  0  0  0  0  0  0  0
   -4.6151  -31.0038   14.1490 N   0  0  0  0  0  0  0  0  0  0  0  0
   -5.1468  -31.5389   15.2739 C   0  0  0  0  0  0  0  0  0  0  0  0
   -5.5443  -30.7834   16.3512 C   0  0  0  0  0  0  0  0  0  0  0  0
   -5.3631  -29.4048   16.2679 C   0  0  0  0  0  0  0  0  0  0  0  0
   -4.7602  -28.8206   15.1429 C   0  0  0  0  0  0  0  0  0  0  0  0
   -4.4621  -27.4316   15.0533 C   0  0  0  0  0  0  0  0  0  0  0  0
    1.9347  -20.1369   15.8821 H   0  0  0  0  0  0  0  0  0  0  0  0
    2.5004  -21.7840   15.5594 H   0  0  0  0  0  0  0  0  0  0  0  0
    0.9929  -21.5949   16.3560 H   0  0  0  0  0  0  0  0  0  0  0  0
    3.0366  -20.5546   13.8282 H   0  0  0  0  0  0  0  0  0  0  0  0
    2.6172  -22.1694   13.3041 H   0  0  0  0  0  0  0  0  0  0  0  0
    3.1628  -20.7810   11.2772 H   0  0  0  0  0  0  0  0  0  0  0  0
    1.1360  -19.5216   10.5900 H   0  0  0  0  0  0  0  0  0  0  0  0
   -0.1943  -18.8823   12.2158 H   0  0  0  0  0  0  0  0  0  0  0  0
    0.7868  -19.1551   13.4401 H   0  0  0  0  0  0  0  0  0  0  0  0
   -1.4839  -19.8048   14.0529 H   0  0  0  0  0  0  0  0  0  0  0  0
   -3.2424  -22.2757   12.7282 H   0  0  0  0  0  0  0  0  0  0  0  0
   -3.3116  -22.0463   14.3539 H   0  0  0  0  0  0  0  0  0  0  0  0
   -3.1778  -25.0418   15.0078 H   0  0  0  0  0  0  0  0  0  0  0  0
   -3.2004  -27.2151   11.9343 H   0  0  0  0  0  0  0  0  0  0  0  0
   -3.6763  -29.6403   12.0792 H   0  0  0  0  0  0  0  0  0  0  0  0
   -5.2594  -32.6184   15.2652 H   0  0  0  0  0  0  0  0  0  0  0  0
   -5.9989  -31.2366   17.2237 H   0  0  0  0  0  0  0  0  0  0  0  0
   -5.7054  -28.7822   17.0898 H   0  0  0  0  0  0  0  0  0  0  0  0
   -4.7473  -26.8261   15.9014 H   0  0  0  0  0  0  0  0  0  0  0  0
  1  2  1  0
  2  3  1  0
  3  4  1  0
  4  5  2  0
  5  6  1  0
  6  7  1  0
  7  8  1  0
  8  9  1  0
  9 10  2  0
  9 11  1  0
 11 12  1  0
 12 13  2  0
 13 14  1  0
 14 15  2  0
 15 16  1  0
 16 17  2  0
 17 18  1  0
 18 19  2  0
 19 20  1  0
 20 21  2  0
  7  2  1  0
 21 12  1  0
 20 15  1  0
  1 22  1  0
  1 23  1  0
  1 24  1  0
  3 25  1  0
  3 26  1  0
  4 27  1  0
  5 28  1  0
  6 29  1  0
  6 30  1  0
  7 31  1  0
  8 32  1  0
  8 33  1  0
 11 34  1  0
 13 35  1  0
 14 36  1  0
 17 37  1  0
 18 38  1  0
 19 39  1  0
 21 40  1  0
M  END
>  <Energy>  (531) 
649.05275784311209

>  <compound_id>  (531) 
62163

>  <target_id>  (531) 
1

>  <reference_id>  (531) 
85

>  <inspiration_ids>  (531) 
[85, 68]

>  <energy_score>  (531) 
566.2831855747079

>  <distance_score>  (531) 
10.745768115840885

>  <path>  (531) 
/opt/xchem-fragalysis-2/maxwin/BulkDock/SCRATCH/511021/C62163-P85/C62163-P85.minimised.mol

>  <scratch_subdir>  (531) 
/opt/xchem-fragalysis-2/maxwin/BulkDock/SCRATCH/511021/C62163-P85

>  <fragmenstein_runtime>  (531) 
10.23152470588684

>  <fragmenstein_outcome>  (531) 
too moved

>  <fragmenstein_mode>  (531) 
expansion

>  <fragmenstein_error>  (531) 


$$$$
C62163-P68
     RDKit          3D

 40 42  0  0  0  0  0  0  0  0999 V2000
    1.4650  -28.9808   13.3147 C   0  0  0  0  0  0  0  0  0  0  0  0
    0.9638  -27.6701   12.9042 N   0  0  0  0  0  0  0  0  0  0  0  0
    2.0002  -26.9672   12.0660 C   0  0  0  0  0  0  0  0  0  0  0  0
    1.6229  -25.5729   11.7532 C   0  0  0  0  0  0  0  0  0  0  0  0
    0.3186  -25.3139   11.7154 C   0  0  0  0  0  0  0  0  0  0  0  0
   -0.8106  -26.3346   11.8421 C   0  0  0  0  0  0  0  0  0  0  0  0
   -0.4093  -27.7994   12.2998 C   0  0  0  0  0  0  0  0  0  0  0  0
   -1.7569  -28.5922   13.1802 C   0  0  0  0  0  0  0  0  0  0  0  0
   -2.0096  -30.2417   13.7273 C   0  0  0  0  0  0  0  0  0  0  0  0
   -1.1491  -31.0493   13.5768 O   0  0  0  0  0  0  0  0  0  0  0  0
   -3.4812  -30.3849   14.4274 N   0  0  0  0  0  0  0  0  0  0  0  0
   -4.1940  -31.6137   14.9880 C   0  0  0  0  0  0  0  0  0  0  0  0
   -5.5496  -31.4947   15.3781 C   0  0  0  0  0  0  0  0  0  0  0  0
   -6.3872  -32.6140   15.7436 C   0  0  0  0  0  0  0  0  0  0  0  0
   -5.9506  -33.9470   15.8787 C   0  0  0  0  0  0  0  0  0  0  0  0
   -6.7484  -34.9784   16.3536 N   0  0  0  0  0  0  0  0  0  0  0  0
   -6.2145  -36.1780   16.6350 C   0  0  0  0  0  0  0  0  0  0  0  0
   -4.9132  -36.4514   16.3221 C   0  0  0  0  0  0  0  0  0  0  0  0
   -4.1287  -35.4289   15.7454 C   0  0  0  0  0  0  0  0  0  0  0  0
   -4.5981  -34.1023   15.6080 C   0  0  0  0  0  0  0  0  0  0  0  0
   -3.7528  -32.9418   15.1842 C   0  0  0  0  0  0  0  0  0  0  0  0
    2.4565  -28.8936   13.7734 H   0  0  0  0  0  0  0  0  0  0  0  0
    1.5366  -29.6765   12.4717 H   0  0  0  0  0  0  0  0  0  0  0  0
    0.8196  -29.4155   14.0827 H   0  0  0  0  0  0  0  0  0  0  0  0
    2.9335  -26.9328   12.6415 H   0  0  0  0  0  0  0  0  0  0  0  0
    2.1976  -27.5262   11.1434 H   0  0  0  0  0  0  0  0  0  0  0  0
    2.3690  -24.7967   11.6282 H   0  0  0  0  0  0  0  0  0  0  0  0
    0.0104  -24.2946   11.5829 H   0  0  0  0  0  0  0  0  0  0  0  0
   -1.3252  -26.4204   10.8788 H   0  0  0  0  0  0  0  0  0  0  0  0
   -1.5653  -25.9588   12.5397 H   0  0  0  0  0  0  0  0  0  0  0  0
   -0.3114  -28.4169   11.3952 H   0  0  0  0  0  0  0  0  0  0  0  0
   -2.6129  -28.4326   12.5089 H   0  0  0  0  0  0  0  0  0  0  0  0
   -1.9388  -27.9853   14.0679 H   0  0  0  0  0  0  0  0  0  0  0  0
   -3.9330  -29.4793   14.4608 H   0  0  0  0  0  0  0  0  0  0  0  0
   -6.0323  -30.5186   15.3194 H   0  0  0  0  0  0  0  0  0  0  0  0
   -7.4335  -32.3857   15.9280 H   0  0  0  0  0  0  0  0  0  0  0  0
   -6.8826  -36.9172   17.0604 H   0  0  0  0  0  0  0  0  0  0  0  0
   -4.5106  -37.4458   16.4690 H   0  0  0  0  0  0  0  0  0  0  0  0
   -3.1030  -35.6559   15.4604 H   0  0  0  0  0  0  0  0  0  0  0  0
   -2.7066  -33.1546   14.9507 H   0  0  0  0  0  0  0  0  0  0  0  0
  1  2  1  0
  2  3  1  0
  3  4  1  0
  4  5  2  0
  5  6  1  0
  6  7  1  0
  7  8  1  0
  8  9  1  0
  9 10  2  0
  9 11  1  0
 11 12  1  0
 12 13  2  0
 13 14  1  0
 14 15  2  0
 15 16  1  0
 16 17  2  0
 17 18  1  0
 18 19  2  0
 19 20  1  0
 20 21  2  0
  7  2  1  0
 21 12  1  0
 20 15  1  0
  1 22  1  0
  1 23  1  0
  1 24  1  0
  3 25  1  0
  3 26  1  0
  4 27  1  0
  5 28  1  0
  6 29  1  0
  6 30  1  0
  7 31  1  0
  8 32  1  0
  8 33  1  0
 11 34  1  0
 13 35  1  0
 14 36  1  0
 17 37  1  0
 18 38  1  0
 19 39  1  0
 21 40  1  0
M  END
>  <Energy>  (532) 
125.49537114056467

>  <compound_id>  (532) 
62163

>  <target_id>  (532) 
1

>  <reference_id>  (532) 
68

>  <inspiration_ids>  (532) 
[85, 68]

>  <energy_score>  (532) 
37.96457912150254

>  <distance_score>  (532) 
9.826262435232861

>  <path>  (532) 
/opt/xchem-fragalysis-2/maxwin/BulkDock/SCRATCH/511021/C62163-P68/C62163-P68.minimised.mol

>  <scratch_subdir>  (532) 
/opt/xchem-fragalysis-2/maxwin/BulkDock/SCRATCH/511021/C62163-P68

>  <fragmenstein_runtime>  (532) 
7.30603551864624

>  <fragmenstein_outcome>  (532) 
too moved

>  <fragmenstein_mode>  (532) 
expansion

>  <fragmenstein_error>  (532) 


$$$$
C62166-P85
     RDKit          3D

 44 46  0  0  0  0  0  0  0  0999 V2000
   -3.4573  -22.2331   15.1773 O   0  0  0  0  0  0  0  0  0  0  0  0
   -3.0476  -21.8933   14.1341 C   0  0  0  0  0  0  0  0  0  0  0  0
   -3.0940  -22.9382   12.7229 N   0  0  0  0  0  0  0  0  0  0  0  0
   -3.6759  -24.4448   12.5269 C   0  0  0  0  0  0  0  0  0  0  0  0
   -3.1593  -25.9956   12.4042 C   0  0  0  0  0  0  0  0  0  0  0  0
   -3.9113  -27.1734   13.1876 C   0  0  0  0  0  0  0  0  0  0  0  0
   -5.2965  -27.3332   13.1981 C   0  0  0  0  0  0  0  0  0  0  0  0
   -5.9454  -28.3494   13.9660 C   0  0  0  0  0  0  0  0  0  0  0  0
   -5.2595  -29.3084   14.7078 C   0  0  0  0  0  0  0  0  0  0  0  0
   -5.9155  -30.2559   15.4252 N   0  0  0  0  0  0  0  0  0  0  0  0
   -5.1931  -31.1959   16.0742 C   0  0  0  0  0  0  0  0  0  0  0  0
   -3.8157  -31.2448   16.0357 C   0  0  0  0  0  0  0  0  0  0  0  0
   -3.1482  -30.2609   15.3009 C   0  0  0  0  0  0  0  0  0  0  0  0
   -3.8633  -29.2551   14.6227 C   0  0  0  0  0  0  0  0  0  0  0  0
   -3.2255  -28.2186   13.8516 C   0  0  0  0  0  0  0  0  0  0  0  0
   -2.0806  -20.2698   13.6137 N   0  0  0  0  0  0  0  0  0  0  0  0
   -1.7028  -18.7509   14.7196 C   0  0  0  0  0  0  0  0  0  0  0  0
   -0.3513  -18.2904   15.7558 C   0  0  0  0  0  0  0  0  0  0  0  0
    0.9853  -18.5026   15.4738 C   0  0  0  0  0  0  0  0  0  0  0  0
    2.1722  -18.1767   16.3262 C   0  0  0  0  0  0  0  0  0  0  0  0
    3.2645  -17.6335   15.5974 O   0  0  0  0  0  0  0  0  0  0  0  0
    1.2270  -19.3919   14.2769 C   0  0  0  0  0  0  0  0  0  0  0  0
   -0.1842  -19.9045   13.5214 C   0  0  0  0  0  0  0  0  0  0  0  0
   -2.7837  -22.4418   11.9586 H   0  0  0  0  0  0  0  0  0  0  0  0
   -4.6333  -24.3558   12.0037 H   0  0  0  0  0  0  0  0  0  0  0  0
   -3.7845  -24.5522   13.5809 H   0  0  0  0  0  0  0  0  0  0  0  0
   -2.0984  -26.0486   12.6536 H   0  0  0  0  0  0  0  0  0  0  0  0
   -3.2166  -26.2582   11.3397 H   0  0  0  0  0  0  0  0  0  0  0  0
   -5.9081  -26.6662   12.5949 H   0  0  0  0  0  0  0  0  0  0  0  0
   -7.0333  -28.3909   13.9603 H   0  0  0  0  0  0  0  0  0  0  0  0
   -5.7742  -31.9225   16.6332 H   0  0  0  0  0  0  0  0  0  0  0  0
   -3.2677  -32.0178   16.5617 H   0  0  0  0  0  0  0  0  0  0  0  0
   -2.0615  -30.2779   15.2608 H   0  0  0  0  0  0  0  0  0  0  0  0
   -2.1446  -28.2679   13.7528 H   0  0  0  0  0  0  0  0  0  0  0  0
   -2.4922  -18.4637   15.4310 H   0  0  0  0  0  0  0  0  0  0  0  0
   -2.2433  -17.9834   14.2246 H   0  0  0  0  0  0  0  0  0  0  0  0
   -0.6536  -17.8272   16.6982 H   0  0  0  0  0  0  0  0  0  0  0  0
    2.5275  -19.0875   16.8192 H   0  0  0  0  0  0  0  0  0  0  0  0
    1.9041  -17.4606   17.1095 H   0  0  0  0  0  0  0  0  0  0  0  0
    3.0763  -17.7091   14.6416 H   0  0  0  0  0  0  0  0  0  0  0  0
    1.7724  -20.2918   14.6183 H   0  0  0  0  0  0  0  0  0  0  0  0
    1.8844  -19.0141   13.4981 H   0  0  0  0  0  0  0  0  0  0  0  0
   -0.1571  -19.2627   12.6447 H   0  0  0  0  0  0  0  0  0  0  0  0
    0.3744  -20.5939   12.9290 H   0  0  0  0  0  0  0  0  0  0  0  0
  1  2  2  0
  2  3  1  0
  3  4  1  0
  4  5  1  0
  5  6  1  0
  6  7  2  0
  7  8  1  0
  8  9  2  0
  9 10  1  0
 10 11  2  0
 11 12  1  0
 12 13  2  0
 13 14  1  0
 14 15  2  0
  2 16  1  0
 16 17  1  0
 17 18  1  0
 18 19  2  0
 19 20  1  0
 20 21  1  0
 19 22  1  0
 22 23  1  0
 15  6  1  0
 23 16  1  0
 14  9  1  0
  3 24  1  0
  4 25  1  0
  4 26  1  0
  5 27  1  0
  5 28  1  0
  7 29  1  0
  8 30  1  0
 11 31  1  0
 12 32  1  0
 13 33  1  0
 15 34  1  0
 17 35  1  0
 17 36  1  0
 18 37  1  0
 20 38  1  0
 20 39  1  0
 21 40  1  0
 22 41  1  0
 22 42  1  0
 23 43  1  0
 23 44  1  0
M  END
>  <Energy>  (533) 
458.93694073629473

>  <compound_id>  (533) 
62166

>  <target_id>  (533) 
1

>  <reference_id>  (533) 
85

>  <inspiration_ids>  (533) 
[85, 68]

>  <energy_score>  (533) 
464.0601512486523

>  <distance_score>  (533) 
11.354271326968936

>  <path>  (533) 
/opt/xchem-fragalysis-2/maxwin/BulkDock/SCRATCH/511021/C62166-P85/C62166-P85.minimised.mol

>  <scratch_subdir>  (533) 
/opt/xchem-fragalysis-2/maxwin/BulkDock/SCRATCH/511021/C62166-P85

>  <fragmenstein_runtime>  (533) 
7.031008958816528

>  <fragmenstein_outcome>  (533) 
too moved

>  <fragmenstein_mode>  (533) 
expansion

>  <fragmenstein_error>  (533) 


$$$$
C62166-P68
     RDKit          3D

 44 46  0  0  0  0  0  0  0  0999 V2000
   -1.9631  -26.5018   14.1214 O   0  0  0  0  0  0  0  0  0  0  0  0
   -2.7089  -25.9379   13.5250 C   0  0  0  0  0  0  0  0  0  0  0  0
   -4.3724  -26.5046   13.6041 N   0  0  0  0  0  0  0  0  0  0  0  0
   -5.1841  -28.0040   14.5310 C   0  0  0  0  0  0  0  0  0  0  0  0
   -5.7856  -28.8210   16.2988 C   0  0  0  0  0  0  0  0  0  0  0  0
   -6.3309  -30.3557   17.4266 C   0  0  0  0  0  0  0  0  0  0  0  0
   -5.6571  -30.3973   18.5638 C   0  0  0  0  0  0  0  0  0  0  0  0
   -5.7621  -31.1812   19.9324 C   0  0  0  0  0  0  0  0  0  0  0  0
   -6.9034  -32.3673   20.7207 C   0  0  0  0  0  0  0  0  0  0  0  0
   -7.1812  -33.8949   21.4837 N   0  0  0  0  0  0  0  0  0  0  0  0
   -8.4457  -34.4124   21.9142 C   0  0  0  0  0  0  0  0  0  0  0  0
   -9.5736  -33.6048   21.8014 C   0  0  0  0  0  0  0  0  0  0  0  0
   -9.4036  -32.3804   21.0429 C   0  0  0  0  0  0  0  0  0  0  0  0
   -7.9848  -31.7568   20.1572 C   0  0  0  0  0  0  0  0  0  0  0  0
   -7.4126  -30.8145   18.7002 C   0  0  0  0  0  0  0  0  0  0  0  0
   -1.9726  -24.5717   12.5107 N   0  0  0  0  0  0  0  0  0  0  0  0
   -0.0786  -24.0826   12.2007 C   0  0  0  0  0  0  0  0  0  0  0  0
    1.4783  -23.4448   13.4712 C   0  0  0  0  0  0  0  0  0  0  0  0
    1.4180  -21.7051   13.8772 C   0  0  0  0  0  0  0  0  0  0  0  0
    2.5088  -20.7342   13.4438 C   0  0  0  0  0  0  0  0  0  0  0  0
    2.5983  -19.6066   14.2937 O   0  0  0  0  0  0  0  0  0  0  0  0
   -0.5393  -20.9693   13.9976 C   0  0  0  0  0  0  0  0  0  0  0  0
   -1.9799  -22.7896   13.5478 C   0  0  0  0  0  0  0  0  0  0  0  0
   -4.9255  -25.9587   12.9521 H   0  0  0  0  0  0  0  0  0  0  0  0
   -4.4839  -28.7792   14.1936 H   0  0  0  0  0  0  0  0  0  0  0  0
   -6.1055  -28.0843   13.9415 H   0  0  0  0  0  0  0  0  0  0  0  0
   -4.7288  -28.9791   16.5389 H   0  0  0  0  0  0  0  0  0  0  0  0
   -6.2011  -27.9642   16.8349 H   0  0  0  0  0  0  0  0  0  0  0  0
   -5.8272  -29.3758   19.0274 H   0  0  0  0  0  0  0  0  0  0  0  0
   -4.7572  -30.9136   20.2754 H   0  0  0  0  0  0  0  0  0  0  0  0
   -8.4188  -35.3890   22.3800 H   0  0  0  0  0  0  0  0  0  0  0  0
  -10.5378  -33.9036   22.1896 H   0  0  0  0  0  0  0  0  0  0  0  0
  -10.3282  -31.7999   20.8693 H   0  0  0  0  0  0  0  0  0  0  0  0
   -7.5898  -29.9079   19.3685 H   0  0  0  0  0  0  0  0  0  0  0  0
    0.3111  -25.1174   12.0134 H   0  0  0  0  0  0  0  0  0  0  0  0
    0.0171  -23.7071   11.1781 H   0  0  0  0  0  0  0  0  0  0  0  0
    2.4368  -23.8282   13.1106 H   0  0  0  0  0  0  0  0  0  0  0  0
    2.3184  -20.3916   12.4212 H   0  0  0  0  0  0  0  0  0  0  0  0
    3.4751  -21.2467   13.4560 H   0  0  0  0  0  0  0  0  0  0  0  0
    2.3143  -18.8194   13.7872 H   0  0  0  0  0  0  0  0  0  0  0  0
   -0.0223  -20.2655   13.1613 H   0  0  0  0  0  0  0  0  0  0  0  0
   -1.1056  -19.9566   14.0088 H   0  0  0  0  0  0  0  0  0  0  0  0
   -2.8071  -22.9810   14.2504 H   0  0  0  0  0  0  0  0  0  0  0  0
   -2.8156  -22.5230   12.8227 H   0  0  0  0  0  0  0  0  0  0  0  0
  1  2  2  0
  2  3  1  0
  3  4  1  0
  4  5  1  0
  5  6  1  0
  6  7  2  0
  7  8  1  0
  8  9  2  0
  9 10  1  0
 10 11  2  0
 11 12  1  0
 12 13  2  0
 13 14  1  0
 14 15  2  0
  2 16  1  0
 16 17  1  0
 17 18  1  0
 18 19  2  0
 19 20  1  0
 20 21  1  0
 19 22  1  0
 22 23  1  0
 15  6  1  0
 23 16  1  0
 14  9  1  0
  3 24  1  0
  4 25  1  0
  4 26  1  0
  5 27  1  0
  5 28  1  0
  7 29  1  0
  8 30  1  0
 11 31  1  0
 12 32  1  0
 13 33  1  0
 15 34  1  0
 17 35  1  0
 17 36  1  0
 18 37  1  0
 20 38  1  0
 20 39  1  0
 21 40  1  0
 22 41  1  0
 22 42  1  0
 23 43  1  0
 23 44  1  0
M  END
>  <Energy>  (534) 
1614.6891878677493

>  <compound_id>  (534) 
62166

>  <target_id>  (534) 
1

>  <reference_id>  (534) 
68

>  <inspiration_ids>  (534) 
[85, 68]

>  <energy_score>  (534) 
1619.8123983801177

>  <distance_score>  (534) 
7.727407265867781

>  <path>  (534) 
/opt/xchem-fragalysis-2/maxwin/BulkDock/SCRATCH/511021/C62166-P68/C62166-P68.minimised.mol

>  <scratch_subdir>  (534) 
/opt/xchem-fragalysis-2/maxwin/BulkDock/SCRATCH/511021/C62166-P68

>  <fragmenstein_runtime>  (534) 
12.001744270324707

>  <fragmenstein_outcome>  (534) 
too moved

>  <fragmenstein_mode>  (534) 
expansion

>  <fragmenstein_error>  (534) 


$$$$
C62152-P85
     RDKit          3D

 43 45  0  0  0  0  0  0  0  0999 V2000
   -1.7909  -31.6675   13.4476 O   0  0  0  0  0  0  0  0  0  0  0  0
   -1.8591  -30.4792   13.6639 C   0  0  0  0  0  0  0  0  0  0  0  0
   -3.2279  -29.9898   14.2842 C   0  0  0  0  0  0  0  0  0  0  0  0
   -4.3047  -30.4100   13.4377 O   0  0  0  0  0  0  0  0  0  0  0  0
   -3.5975  -30.3539   15.7714 C   0  0  0  0  0  0  0  0  0  0  0  0
   -4.1613  -31.6686   16.3449 C   0  0  0  0  0  0  0  0  0  0  0  0
   -3.4459  -32.8622   16.3119 C   0  0  0  0  0  0  0  0  0  0  0  0
   -3.8508  -33.9775   17.0844 C   0  0  0  0  0  0  0  0  0  0  0  0
   -4.9572  -33.9590   17.9290 C   0  0  0  0  0  0  0  0  0  0  0  0
   -5.2584  -35.0351   18.6912 N   0  0  0  0  0  0  0  0  0  0  0  0
   -6.3286  -34.9585   19.5112 C   0  0  0  0  0  0  0  0  0  0  0  0
   -7.1368  -33.8437   19.6065 C   0  0  0  0  0  0  0  0  0  0  0  0
   -6.8239  -32.7413   18.8148 C   0  0  0  0  0  0  0  0  0  0  0  0
   -5.7141  -32.7769   17.9551 C   0  0  0  0  0  0  0  0  0  0  0  0
   -5.3247  -31.6654   17.1550 C   0  0  0  0  0  0  0  0  0  0  0  0
   -0.9047  -29.4035   13.3745 N   0  0  0  0  0  0  0  0  0  0  0  0
    0.5096  -29.4603   12.8182 C   0  0  0  0  0  0  0  0  0  0  0  0
    1.3191  -28.2170   12.5395 C   0  0  0  0  0  0  0  0  0  0  0  0
    0.8071  -27.1579   11.8999 C   0  0  0  0  0  0  0  0  0  0  0  0
    1.6673  -26.0035   11.3897 C   0  0  0  0  0  0  0  0  0  0  0  0
    1.6345  -24.8801   12.2383 O   0  0  0  0  0  0  0  0  0  0  0  0
   -0.6607  -27.3231   11.6338 C   0  0  0  0  0  0  0  0  0  0  0  0
   -1.1895  -28.7936   11.9755 C   0  0  0  0  0  0  0  0  0  0  0  0
   -3.2077  -28.8936   14.2303 H   0  0  0  0  0  0  0  0  0  0  0  0
   -4.2036  -31.3802   13.3642 H   0  0  0  0  0  0  0  0  0  0  0  0
   -4.3663  -29.6064   16.0019 H   0  0  0  0  0  0  0  0  0  0  0  0
   -2.7218  -30.1067   16.3850 H   0  0  0  0  0  0  0  0  0  0  0  0
   -2.5278  -32.9392   15.7307 H   0  0  0  0  0  0  0  0  0  0  0  0
   -3.2479  -34.8833   17.0465 H   0  0  0  0  0  0  0  0  0  0  0  0
   -6.5215  -35.8469   20.1051 H   0  0  0  0  0  0  0  0  0  0  0  0
   -7.9843  -33.8268   20.2818 H   0  0  0  0  0  0  0  0  0  0  0  0
   -7.4368  -31.8471   18.8825 H   0  0  0  0  0  0  0  0  0  0  0  0
   -5.9230  -30.7576   17.2121 H   0  0  0  0  0  0  0  0  0  0  0  0
    0.6233  -30.2242   12.0301 H   0  0  0  0  0  0  0  0  0  0  0  0
    1.0384  -29.9567   13.6457 H   0  0  0  0  0  0  0  0  0  0  0  0
    2.3773  -28.2487   12.7872 H   0  0  0  0  0  0  0  0  0  0  0  0
    2.7136  -26.3289   11.3450 H   0  0  0  0  0  0  0  0  0  0  0  0
    1.4111  -25.7332   10.3673 H   0  0  0  0  0  0  0  0  0  0  0  0
    1.3916  -24.0727   11.7411 H   0  0  0  0  0  0  0  0  0  0  0  0
   -1.2309  -26.5940   12.2169 H   0  0  0  0  0  0  0  0  0  0  0  0
   -0.8752  -27.1448   10.5755 H   0  0  0  0  0  0  0  0  0  0  0  0
   -1.0167  -29.5085   11.1514 H   0  0  0  0  0  0  0  0  0  0  0  0
   -2.2852  -28.6881   11.9511 H   0  0  0  0  0  0  0  0  0  0  0  0
  1  2  2  0
  2  3  1  0
  3  4  1  0
  3  5  1  0
  5  6  1  0
  6  7  2  0
  7  8  1  0
  8  9  2  0
  9 10  1  0
 10 11  2  0
 11 12  1  0
 12 13  2  0
 13 14  1  0
 14 15  2  0
  2 16  1  0
 16 17  1  0
 17 18  1  0
 18 19  2  0
 19 20  1  0
 20 21  1  0
 19 22  1  0
 22 23  1  0
 15  6  1  0
 23 16  1  0
 14  9  1  0
  3 24  1  0
  4 25  1  0
  5 26  1  0
  5 27  1  0
  7 28  1  0
  8 29  1  0
 11 30  1  0
 12 31  1  0
 13 32  1  0
 15 33  1  0
 17 34  1  0
 17 35  1  0
 18 36  1  0
 20 37  1  0
 20 38  1  0
 21 39  1  0
 22 40  1  0
 22 41  1  0
 23 42  1  0
 23 43  1  0
M  END
>  <Energy>  (535) 
159.56709575370505

>  <compound_id>  (535) 
62152

>  <target_id>  (535) 
1

>  <reference_id>  (535) 
85

>  <inspiration_ids>  (535) 
[85, 68]

>  <energy_score>  (535) 
58.67346988763427

>  <distance_score>  (535) 
10.142583721954196

>  <path>  (535) 
/opt/xchem-fragalysis-2/maxwin/BulkDock/SCRATCH/511021/C62152-P85/C62152-P85.minimised.mol

>  <scratch_subdir>  (535) 
/opt/xchem-fragalysis-2/maxwin/BulkDock/SCRATCH/511021/C62152-P85

>  <fragmenstein_runtime>  (535) 
7.8496434688568115

>  <fragmenstein_outcome>  (535) 
too moved

>  <fragmenstein_mode>  (535) 
expansion

>  <fragmenstein_error>  (535) 


$$$$
C62152-P68
     RDKit          3D

 43 45  0  0  0  0  0  0  0  0999 V2000
   -5.0534  -32.0876   17.4790 O   0  0  0  0  0  0  0  0  0  0  0  0
   -5.4796  -30.9732   17.4707 C   0  0  0  0  0  0  0  0  0  0  0  0
   -6.7516  -30.6723   18.7052 C   0  0  0  0  0  0  0  0  0  0  0  0
   -6.3262  -29.3587   18.9842 O   0  0  0  0  0  0  0  0  0  0  0  0
   -8.0877  -31.0635   20.0489 C   0  0  0  0  0  0  0  0  0  0  0  0
   -9.7628  -31.6827   20.8606 C   0  0  0  0  0  0  0  0  0  0  0  0
   -9.7553  -32.9058   21.6155 C   0  0  0  0  0  0  0  0  0  0  0  0
  -10.8830  -33.5670   22.0849 C   0  0  0  0  0  0  0  0  0  0  0  0
  -12.1144  -33.1433   21.7016 C   0  0  0  0  0  0  0  0  0  0  0  0
  -13.1543  -33.9032   22.0646 N   0  0  0  0  0  0  0  0  0  0  0  0
  -14.3493  -33.5847   21.5452 C   0  0  0  0  0  0  0  0  0  0  0  0
  -14.5510  -32.5143   20.6933 C   0  0  0  0  0  0  0  0  0  0  0  0
  -13.4681  -31.7003   20.3713 C   0  0  0  0  0  0  0  0  0  0  0  0
  -12.2012  -31.9964   20.8788 C   0  0  0  0  0  0  0  0  0  0  0  0
  -11.0495  -31.2373   20.5158 C   0  0  0  0  0  0  0  0  0  0  0  0
   -5.0488  -29.7911   16.6731 N   0  0  0  0  0  0  0  0  0  0  0  0
   -3.8620  -29.6186   15.7136 C   0  0  0  0  0  0  0  0  0  0  0  0
   -3.5580  -28.4281   14.8456 C   0  0  0  0  0  0  0  0  0  0  0  0
   -4.5103  -27.8172   14.1403 C   0  0  0  0  0  0  0  0  0  0  0  0
   -4.2732  -26.8342   12.9875 C   0  0  0  0  0  0  0  0  0  0  0  0
   -3.0739  -26.0806   13.1283 O   0  0  0  0  0  0  0  0  0  0  0  0
   -5.8696  -28.3409   14.5241 C   0  0  0  0  0  0  0  0  0  0  0  0
   -5.8401  -29.7185   15.3495 C   0  0  0  0  0  0  0  0  0  0  0  0
   -7.3383  -30.8729   17.8209 H   0  0  0  0  0  0  0  0  0  0  0  0
   -6.6704  -28.8855   18.1973 H   0  0  0  0  0  0  0  0  0  0  0  0
   -7.7860  -32.0575   20.1607 H   0  0  0  0  0  0  0  0  0  0  0  0
   -8.7679  -30.5561   19.4725 H   0  0  0  0  0  0  0  0  0  0  0  0
   -8.8557  -33.4645   21.8033 H   0  0  0  0  0  0  0  0  0  0  0  0
  -10.7782  -34.4805   22.6637 H   0  0  0  0  0  0  0  0  0  0  0  0
  -15.1706  -34.2348   21.8329 H   0  0  0  0  0  0  0  0  0  0  0  0
  -15.5378  -32.3101   20.2921 H   0  0  0  0  0  0  0  0  0  0  0  0
  -13.6124  -30.8623   19.6949 H   0  0  0  0  0  0  0  0  0  0  0  0
  -11.2003  -30.4063   19.8431 H   0  0  0  0  0  0  0  0  0  0  0  0
   -3.6685  -30.5620   15.1735 H   0  0  0  0  0  0  0  0  0  0  0  0
   -3.0262  -29.6301   16.4301 H   0  0  0  0  0  0  0  0  0  0  0  0
   -2.5124  -28.2261   14.6319 H   0  0  0  0  0  0  0  0  0  0  0  0
   -5.1122  -26.1432   12.8910 H   0  0  0  0  0  0  0  0  0  0  0  0
   -4.2135  -27.4018   12.0525 H   0  0  0  0  0  0  0  0  0  0  0  0
   -3.0811  -25.3931   12.4398 H   0  0  0  0  0  0  0  0  0  0  0  0
   -6.3757  -27.5954   15.1464 H   0  0  0  0  0  0  0  0  0  0  0  0
   -6.4752  -28.5036   13.6254 H   0  0  0  0  0  0  0  0  0  0  0  0
   -6.8849  -29.8793   15.6499 H   0  0  0  0  0  0  0  0  0  0  0  0
   -5.6483  -30.5898   14.6987 H   0  0  0  0  0  0  0  0  0  0  0  0
  1  2  2  0
  2  3  1  0
  3  4  1  0
  3  5  1  0
  5  6  1  0
  6  7  2  0
  7  8  1  0
  8  9  2  0
  9 10  1  0
 10 11  2  0
 11 12  1  0
 12 13  2  0
 13 14  1  0
 14 15  2  0
  2 16  1  0
 16 17  1  0
 17 18  1  0
 18 19  2  0
 19 20  1  0
 20 21  1  0
 19 22  1  0
 22 23  1  0
 15  6  1  0
 23 16  1  0
 14  9  1  0
  3 24  1  0
  4 25  1  0
  5 26  1  0
  5 27  1  0
  7 28  1  0
  8 29  1  0
 11 30  1  0
 12 31  1  0
 13 32  1  0
 15 33  1  0
 17 34  1  0
 17 35  1  0
 18 36  1  0
 20 37  1  0
 20 38  1  0
 21 39  1  0
 22 40  1  0
 22 41  1  0
 23 42  1  0
 23 43  1  0
M  END
>  <Energy>  (536) 
388.51278075443633

>  <compound_id>  (536) 
62152

>  <target_id>  (536) 
1

>  <reference_id>  (536) 
68

>  <inspiration_ids>  (536) 
[85, 68]

>  <energy_score>  (536) 
287.61915488836576

>  <distance_score>  (536) 
10.678538073726925

>  <path>  (536) 
/opt/xchem-fragalysis-2/maxwin/BulkDock/SCRATCH/511021/C62152-P68/C62152-P68.minimised.mol

>  <scratch_subdir>  (536) 
/opt/xchem-fragalysis-2/maxwin/BulkDock/SCRATCH/511021/C62152-P68

>  <fragmenstein_runtime>  (536) 
17.439532041549683

>  <fragmenstein_outcome>  (536) 
too moved

>  <fragmenstein_mode>  (536) 
expansion

>  <fragmenstein_error>  (536) 


$$$$
C62168-P85
     RDKit          3D

 40 42  0  0  0  0  0  0  0  0999 V2000
   -2.7968  -25.0345   15.2697 O   0  0  0  0  0  0  0  0  0  0  0  0
   -2.1567  -23.8761   15.4024 C   0  0  0  0  0  0  0  0  0  0  0  0
   -1.0376  -23.2134   16.8436 N   0  0  0  0  0  0  0  0  0  0  0  0
   -0.5168  -23.9511   18.1940 S   0  0  0  0  0  0  0  0  0  0  0  0
   -1.8559  -24.3606   18.4405 O   0  0  0  0  0  0  0  0  0  0  0  0
    0.1581  -22.8875   18.9153 O   0  0  0  0  0  0  0  0  0  0  0  0
    0.5374  -25.5946   18.7142 C   0  0  0  0  0  0  0  0  0  0  0  0
    0.2418  -26.7769   19.9337 C   0  0  0  0  0  0  0  0  0  0  0  0
   -0.6373  -26.6961   21.0153 C   0  0  0  0  0  0  0  0  0  0  0  0
   -0.9211  -27.7804   21.9003 C   0  0  0  0  0  0  0  0  0  0  0  0
   -0.4673  -29.0671   21.6657 C   0  0  0  0  0  0  0  0  0  0  0  0
   -0.9118  -30.1042   22.4229 N   0  0  0  0  0  0  0  0  0  0  0  0
   -0.5408  -31.3498   22.0631 C   0  0  0  0  0  0  0  0  0  0  0  0
    0.2994  -31.6130   20.9992 C   0  0  0  0  0  0  0  0  0  0  0  0
    0.7905  -30.5326   20.2597 C   0  0  0  0  0  0  0  0  0  0  0  0
    0.3952  -29.2180   20.5616 C   0  0  0  0  0  0  0  0  0  0  0  0
    0.7809  -28.0783   19.7566 C   0  0  0  0  0  0  0  0  0  0  0  0
   -2.0691  -22.3334   13.8245 C   0  0  0  0  0  0  0  0  0  0  0  0
   -1.4693  -20.2771   13.7878 C   0  0  0  0  0  0  0  0  0  0  0  0
   -0.3171  -19.5260   13.1589 C   0  0  0  0  0  0  0  0  0  0  0  0
    0.8175  -19.6387   12.2424 C   0  0  0  0  0  0  0  0  0  0  0  0
    1.4081  -20.5444   13.1336 N   0  0  0  0  0  0  0  0  0  0  0  0
    0.0209  -21.2618   14.0899 C   0  0  0  0  0  0  0  0  0  0  0  0
   -0.6406  -22.3406   16.5992 H   0  0  0  0  0  0  0  0  0  0  0  0
   -0.4784  -25.9234   18.5936 H   0  0  0  0  0  0  0  0  0  0  0  0
    1.1309  -25.0143   19.4252 H   0  0  0  0  0  0  0  0  0  0  0  0
   -1.2908  -25.8602   21.1311 H   0  0  0  0  0  0  0  0  0  0  0  0
   -1.6505  -27.6277   22.6929 H   0  0  0  0  0  0  0  0  0  0  0  0
   -0.9420  -32.1501   22.6766 H   0  0  0  0  0  0  0  0  0  0  0  0
    0.5779  -32.6305   20.7509 H   0  0  0  0  0  0  0  0  0  0  0  0
    1.4478  -30.7256   19.4162 H   0  0  0  0  0  0  0  0  0  0  0  0
    1.4531  -28.2552   18.9205 H   0  0  0  0  0  0  0  0  0  0  0  0
   -3.1207  -21.9100   14.1188 H   0  0  0  0  0  0  0  0  0  0  0  0
   -1.8302  -19.4752   14.4728 H   0  0  0  0  0  0  0  0  0  0  0  0
    0.2396  -18.9939   14.0046 H   0  0  0  0  0  0  0  0  0  0  0  0
    1.3958  -18.7260   12.1373 H   0  0  0  0  0  0  0  0  0  0  0  0
    0.7334  -20.0358   11.2416 H   0  0  0  0  0  0  0  0  0  0  0  0
    1.7444  -21.3117   12.5246 H   0  0  0  0  0  0  0  0  0  0  0  0
    0.7561  -21.4037   15.1953 H   0  0  0  0  0  0  0  0  0  0  0  0
    1.0884  -21.8597   13.9098 H   0  0  0  0  0  0  0  0  0  0  0  0
  1  2  2  0
  2  3  1  0
  3  4  1  0
  4  5  2  0
  4  6  2  0
  4  7  1  0
  7  8  1  0
  8  9  2  0
  9 10  1  0
 10 11  2  0
 11 12  1  0
 12 13  2  0
 13 14  1  0
 14 15  2  0
 15 16  1  0
 16 17  2  0
  2 18  1  0
 18 19  1  0
 19 20  2  0
 20 21  1  0
 21 22  1  0
 22 23  1  0
 17  8  1  0
 23 18  1  0
 16 11  1  0
  3 24  1  0
  7 25  1  0
  7 26  1  0
  9 27  1  0
 10 28  1  0
 13 29  1  0
 14 30  1  0
 15 31  1  0
 17 32  1  0
 18 33  1  0
 19 34  1  0
 20 35  1  0
 21 36  1  0
 21 37  1  0
 22 38  1  0
 23 39  1  0
 23 40  1  0
M  END
>  <Energy>  (537) 
1005.7582546737416

>  <compound_id>  (537) 
62168

>  <target_id>  (537) 
1

>  <reference_id>  (537) 
85

>  <inspiration_ids>  (537) 
[85, 68]

>  <energy_score>  (537) 
969.0933022539024

>  <distance_score>  (537) 
11.109866271715418

>  <path>  (537) 
/opt/xchem-fragalysis-2/maxwin/BulkDock/SCRATCH/511021/C62168-P85/C62168-P85.minimised.mol

>  <scratch_subdir>  (537) 
/opt/xchem-fragalysis-2/maxwin/BulkDock/SCRATCH/511021/C62168-P85

>  <fragmenstein_runtime>  (537) 
5.530605316162109

>  <fragmenstein_outcome>  (537) 
too moved

>  <fragmenstein_mode>  (537) 
expansion

>  <fragmenstein_error>  (537) 


$$$$
C62168-P68
     RDKit          3D

 40 42  0  0  0  0  0  0  0  0999 V2000
   -4.5882  -30.4488   15.3384 O   0  0  0  0  0  0  0  0  0  0  0  0
   -5.3209  -29.5951   15.7731 C   0  0  0  0  0  0  0  0  0  0  0  0
   -6.2557  -29.6184   16.9519 N   0  0  0  0  0  0  0  0  0  0  0  0
   -6.6761  -30.8555   17.9798 S   0  0  0  0  0  0  0  0  0  0  0  0
   -7.1976  -31.7409   16.9570 O   0  0  0  0  0  0  0  0  0  0  0  0
   -5.3497  -31.0157   18.5343 O   0  0  0  0  0  0  0  0  0  0  0  0
   -8.1104  -30.7640   19.7124 C   0  0  0  0  0  0  0  0  0  0  0  0
   -9.8034  -31.2250   20.5722 C   0  0  0  0  0  0  0  0  0  0  0  0
  -11.1172  -30.8545   20.2457 C   0  0  0  0  0  0  0  0  0  0  0  0
  -12.2652  -31.5427   20.7600 C   0  0  0  0  0  0  0  0  0  0  0  0
  -12.2162  -32.6525   21.6008 C   0  0  0  0  0  0  0  0  0  0  0  0
  -13.3244  -33.2594   22.0717 N   0  0  0  0  0  0  0  0  0  0  0  0
  -13.1746  -34.3792   22.8223 C   0  0  0  0  0  0  0  0  0  0  0  0
  -11.9561  -34.9333   23.1520 C   0  0  0  0  0  0  0  0  0  0  0  0
  -10.8256  -34.2903   22.6840 C   0  0  0  0  0  0  0  0  0  0  0  0
  -10.9563  -33.1320   21.8996 C   0  0  0  0  0  0  0  0  0  0  0  0
   -9.8418  -32.4630   21.3681 C   0  0  0  0  0  0  0  0  0  0  0  0
   -5.3060  -28.2275   14.9874 C   0  0  0  0  0  0  0  0  0  0  0  0
   -3.8883  -27.6969   14.8348 C   0  0  0  0  0  0  0  0  0  0  0  0
   -3.4414  -27.0882   13.7199 C   0  0  0  0  0  0  0  0  0  0  0  0
   -4.2880  -26.9286   12.5049 C   0  0  0  0  0  0  0  0  0  0  0  0
   -5.1954  -28.0651   12.3742 N   0  0  0  0  0  0  0  0  0  0  0  0
   -5.9831  -28.3597   13.5923 C   0  0  0  0  0  0  0  0  0  0  0  0
   -6.7850  -28.7483   16.9781 H   0  0  0  0  0  0  0  0  0  0  0  0
   -7.8267  -29.8078   20.0185 H   0  0  0  0  0  0  0  0  0  0  0  0
   -7.5976  -31.5843   20.1663 H   0  0  0  0  0  0  0  0  0  0  0  0
  -11.3823  -30.0700   19.5556 H   0  0  0  0  0  0  0  0  0  0  0  0
  -13.2502  -31.1925   20.4520 H   0  0  0  0  0  0  0  0  0  0  0  0
  -14.1035  -34.8320   23.1587 H   0  0  0  0  0  0  0  0  0  0  0  0
  -11.8907  -35.8325   23.7525 H   0  0  0  0  0  0  0  0  0  0  0  0
   -9.8466  -34.6972   22.9242 H   0  0  0  0  0  0  0  0  0  0  0  0
   -8.9293  -32.9942   21.5711 H   0  0  0  0  0  0  0  0  0  0  0  0
   -5.8569  -27.4946   15.5884 H   0  0  0  0  0  0  0  0  0  0  0  0
   -3.2209  -27.8799   15.6684 H   0  0  0  0  0  0  0  0  0  0  0  0
   -2.4201  -26.7317   13.6425 H   0  0  0  0  0  0  0  0  0  0  0  0
   -3.6479  -26.8968   11.6162 H   0  0  0  0  0  0  0  0  0  0  0  0
   -4.8400  -25.9841   12.5317 H   0  0  0  0  0  0  0  0  0  0  0  0
   -4.6193  -28.8869   12.1742 H   0  0  0  0  0  0  0  0  0  0  0  0
   -6.8635  -27.7090   13.5737 H   0  0  0  0  0  0  0  0  0  0  0  0
   -6.3976  -29.3691   13.4750 H   0  0  0  0  0  0  0  0  0  0  0  0
  1  2  2  0
  2  3  1  0
  3  4  1  0
  4  5  2  0
  4  6  2  0
  4  7  1  0
  7  8  1  0
  8  9  2  0
  9 10  1  0
 10 11  2  0
 11 12  1  0
 12 13  2  0
 13 14  1  0
 14 15  2  0
 15 16  1  0
 16 17  2  0
  2 18  1  0
 18 19  1  0
 19 20  2  0
 20 21  1  0
 21 22  1  0
 22 23  1  0
 17  8  1  0
 23 18  1  0
 16 11  1  0
  3 24  1  0
  7 25  1  0
  7 26  1  0
  9 27  1  0
 10 28  1  0
 13 29  1  0
 14 30  1  0
 15 31  1  0
 17 32  1  0
 18 33  1  0
 19 34  1  0
 20 35  1  0
 21 36  1  0
 21 37  1  0
 22 38  1  0
 23 39  1  0
 23 40  1  0
M  END
>  <Energy>  (538) 
210.61146630255337

>  <compound_id>  (538) 
62168

>  <target_id>  (538) 
1

>  <reference_id>  (538) 
68

>  <inspiration_ids>  (538) 
[85, 68]

>  <energy_score>  (538) 
173.94651388271242

>  <distance_score>  (538) 
9.369390088662135

>  <path>  (538) 
/opt/xchem-fragalysis-2/maxwin/BulkDock/SCRATCH/511021/C62168-P68/C62168-P68.minimised.mol

>  <scratch_subdir>  (538) 
/opt/xchem-fragalysis-2/maxwin/BulkDock/SCRATCH/511021/C62168-P68

>  <fragmenstein_runtime>  (538) 
26.050707578659058

>  <fragmenstein_outcome>  (538) 
too moved

>  <fragmenstein_mode>  (538) 
expansion

>  <fragmenstein_error>  (538) 


$$$$
C62159-P85
     RDKit          3D

 42 44  0  0  0  0  0  0  0  0999 V2000
   -2.2292  -26.6800   11.2549 C   0  0  0  0  0  0  0  0  0  0  0  0
   -2.6101  -27.7264   12.2595 C   0  0  0  0  0  0  0  0  0  0  0  0
   -1.8262  -28.7125   12.7015 C   0  0  0  0  0  0  0  0  0  0  0  0
   -2.2188  -29.6162   13.8553 C   0  0  0  0  0  0  0  0  0  0  0  0
   -3.6278  -30.0164   14.3093 N   0  0  0  0  0  0  0  0  0  0  0  0
   -4.6740  -30.6897   13.6126 C   0  0  0  0  0  0  0  0  0  0  0  0
   -4.7526  -31.0339   12.4674 O   0  0  0  0  0  0  0  0  0  0  0  0
   -5.9174  -30.8762   14.5628 C   0  0  0  0  0  0  0  0  0  0  0  0
   -6.9173  -30.3356   14.1858 O   0  0  0  0  0  0  0  0  0  0  0  0
   -5.6351  -31.5897   15.7886 N   0  0  0  0  0  0  0  0  0  0  0  0
   -6.4397  -31.7871   16.9759 C   0  0  0  0  0  0  0  0  0  0  0  0
   -6.3515  -32.9916   17.8853 C   0  0  0  0  0  0  0  0  0  0  0  0
   -5.9451  -34.2578   17.4855 C   0  0  0  0  0  0  0  0  0  0  0  0
   -6.0061  -35.3416   18.3865 C   0  0  0  0  0  0  0  0  0  0  0  0
   -6.4806  -35.2184   19.6909 C   0  0  0  0  0  0  0  0  0  0  0  0
   -6.5200  -36.2923   20.5060 N   0  0  0  0  0  0  0  0  0  0  0  0
   -7.0011  -36.1263   21.7577 C   0  0  0  0  0  0  0  0  0  0  0  0
   -7.4560  -34.9189   22.2503 C   0  0  0  0  0  0  0  0  0  0  0  0
   -7.4107  -33.8127   21.4090 C   0  0  0  0  0  0  0  0  0  0  0  0
   -6.9153  -33.9472   20.1034 C   0  0  0  0  0  0  0  0  0  0  0  0
   -6.8499  -32.8588   19.2052 C   0  0  0  0  0  0  0  0  0  0  0  0
   -3.8437  -28.5051   14.2470 C   0  0  0  0  0  0  0  0  0  0  0  0
   -3.9334  -27.6986   12.9204 C   0  0  0  0  0  0  0  0  0  0  0  0
   -1.2275  -26.8694   10.8596 H   0  0  0  0  0  0  0  0  0  0  0  0
   -2.2373  -25.6944   11.7254 H   0  0  0  0  0  0  0  0  0  0  0  0
   -2.9357  -26.6822   10.4197 H   0  0  0  0  0  0  0  0  0  0  0  0
   -0.8191  -28.8304   12.3080 H   0  0  0  0  0  0  0  0  0  0  0  0
   -1.6330  -29.3721   14.7506 H   0  0  0  0  0  0  0  0  0  0  0  0
   -1.8207  -30.5967   13.5516 H   0  0  0  0  0  0  0  0  0  0  0  0
   -4.6533  -31.8438   15.8047 H   0  0  0  0  0  0  0  0  0  0  0  0
   -6.1782  -30.9194   17.5886 H   0  0  0  0  0  0  0  0  0  0  0  0
   -7.4829  -31.6932   16.6558 H   0  0  0  0  0  0  0  0  0  0  0  0
   -5.5937  -34.4331   16.4710 H   0  0  0  0  0  0  0  0  0  0  0  0
   -5.6793  -36.3240   18.0495 H   0  0  0  0  0  0  0  0  0  0  0  0
   -7.0121  -37.0227   22.3711 H   0  0  0  0  0  0  0  0  0  0  0  0
   -7.8369  -34.8390   23.2626 H   0  0  0  0  0  0  0  0  0  0  0  0
   -7.7636  -32.8516   21.7739 H   0  0  0  0  0  0  0  0  0  0  0  0
   -7.2115  -31.8838   19.5337 H   0  0  0  0  0  0  0  0  0  0  0  0
   -4.8554  -28.3910   14.6699 H   0  0  0  0  0  0  0  0  0  0  0  0
   -3.2493  -28.0030   15.0191 H   0  0  0  0  0  0  0  0  0  0  0  0
   -4.7018  -28.1128   12.2589 H   0  0  0  0  0  0  0  0  0  0  0  0
   -4.2118  -26.6675   13.1571 H   0  0  0  0  0  0  0  0  0  0  0  0
  1  2  1  0
  2  3  2  0
  3  4  1  0
  4  5  1  0
  5  6  1  0
  6  7  2  0
  6  8  1  0
  8  9  2  0
  8 10  1  0
 10 11  1  0
 11 12  1  0
 12 13  2  0
 13 14  1  0
 14 15  2  0
 15 16  1  0
 16 17  2  0
 17 18  1  0
 18 19  2  0
 19 20  1  0
 20 21  2  0
  5 22  1  0
 22 23  1  0
 23  2  1  0
 21 12  1  0
 20 15  1  0
  1 24  1  0
  1 25  1  0
  1 26  1  0
  3 27  1  0
  4 28  1  0
  4 29  1  0
 10 30  1  0
 11 31  1  0
 11 32  1  0
 13 33  1  0
 14 34  1  0
 17 35  1  0
 18 36  1  0
 19 37  1  0
 21 38  1  0
 22 39  1  0
 22 40  1  0
 23 41  1  0
 23 42  1  0
M  END
>  <Energy>  (539) 
162.04519765610016

>  <compound_id>  (539) 
62159

>  <target_id>  (539) 
1

>  <reference_id>  (539) 
85

>  <inspiration_ids>  (539) 
[85, 68]

>  <energy_score>  (539) 
63.33662065707685

>  <distance_score>  (539) 
9.648613173185696

>  <path>  (539) 
/opt/xchem-fragalysis-2/maxwin/BulkDock/SCRATCH/511021/C62159-P85/C62159-P85.minimised.mol

>  <scratch_subdir>  (539) 
/opt/xchem-fragalysis-2/maxwin/BulkDock/SCRATCH/511021/C62159-P85

>  <fragmenstein_runtime>  (539) 
8.451168298721313

>  <fragmenstein_outcome>  (539) 
too moved

>  <fragmenstein_mode>  (539) 
expansion

>  <fragmenstein_error>  (539) 


$$$$
C62159-P68
     RDKit          3D

 42 44  0  0  0  0  0  0  0  0999 V2000
   -2.9298  -26.6257   12.9754 C   0  0  0  0  0  0  0  0  0  0  0  0
   -3.5305  -27.7773   13.7442 C   0  0  0  0  0  0  0  0  0  0  0  0
   -2.9378  -28.9429   14.0243 C   0  0  0  0  0  0  0  0  0  0  0  0
   -3.7238  -30.0921   14.6434 C   0  0  0  0  0  0  0  0  0  0  0  0
   -4.7210  -29.8599   15.7729 N   0  0  0  0  0  0  0  0  0  0  0  0
   -5.6223  -30.7859   16.4476 C   0  0  0  0  0  0  0  0  0  0  0  0
   -5.8681  -31.9420   16.2204 O   0  0  0  0  0  0  0  0  0  0  0  0
   -6.3029  -30.1815   17.7562 C   0  0  0  0  0  0  0  0  0  0  0  0
   -6.0317  -29.0396   17.9973 O   0  0  0  0  0  0  0  0  0  0  0  0
   -7.2437  -31.1025   18.4173 N   0  0  0  0  0  0  0  0  0  0  0  0
   -8.2081  -30.9102   19.8445 C   0  0  0  0  0  0  0  0  0  0  0  0
   -9.8784  -31.3782   20.6873 C   0  0  0  0  0  0  0  0  0  0  0  0
  -11.1647  -30.9672   20.3392 C   0  0  0  0  0  0  0  0  0  0  0  0
  -12.3162  -31.6337   20.8514 C   0  0  0  0  0  0  0  0  0  0  0  0
  -12.2733  -32.7428   21.6981 C   0  0  0  0  0  0  0  0  0  0  0  0
  -13.3885  -33.3343   22.1695 N   0  0  0  0  0  0  0  0  0  0  0  0
  -13.2528  -34.4515   22.9272 C   0  0  0  0  0  0  0  0  0  0  0  0
  -12.0420  -35.0194   23.2631 C   0  0  0  0  0  0  0  0  0  0  0  0
  -10.9019  -34.3948   22.7945 C   0  0  0  0  0  0  0  0  0  0  0  0
  -11.0173  -33.2406   22.0037 C   0  0  0  0  0  0  0  0  0  0  0  0
   -9.8929  -32.5964   21.4763 C   0  0  0  0  0  0  0  0  0  0  0  0
   -5.4678  -29.1128   14.6682 C   0  0  0  0  0  0  0  0  0  0  0  0
   -4.9312  -27.7107   14.2440 C   0  0  0  0  0  0  0  0  0  0  0  0
   -3.1138  -25.6890   13.4979 H   0  0  0  0  0  0  0  0  0  0  0  0
   -3.3953  -26.5578   11.9871 H   0  0  0  0  0  0  0  0  0  0  0  0
   -1.8519  -26.7512   12.8390 H   0  0  0  0  0  0  0  0  0  0  0  0
   -1.9156  -29.1407   13.7137 H   0  0  0  0  0  0  0  0  0  0  0  0
   -4.0813  -30.8235   13.8998 H   0  0  0  0  0  0  0  0  0  0  0  0
   -2.9576  -30.6794   15.1740 H   0  0  0  0  0  0  0  0  0  0  0  0
   -7.2777  -31.9651   17.8973 H   0  0  0  0  0  0  0  0  0  0  0  0
   -7.6873  -31.7271   20.2910 H   0  0  0  0  0  0  0  0  0  0  0  0
   -7.9374  -29.9323   20.0934 H   0  0  0  0  0  0  0  0  0  0  0  0
  -11.3722  -30.1836   19.6283 H   0  0  0  0  0  0  0  0  0  0  0  0
  -13.2974  -31.2772   20.5403 H   0  0  0  0  0  0  0  0  0  0  0  0
  -14.1878  -34.8906   23.2652 H   0  0  0  0  0  0  0  0  0  0  0  0
  -11.9895  -35.9152   23.8701 H   0  0  0  0  0  0  0  0  0  0  0  0
   -9.9279  -34.8110   23.0407 H   0  0  0  0  0  0  0  0  0  0  0  0
   -8.9769  -33.1270   21.6661 H   0  0  0  0  0  0  0  0  0  0  0  0
   -5.7665  -29.7493   13.8155 H   0  0  0  0  0  0  0  0  0  0  0  0
   -6.4486  -28.8898   15.1196 H   0  0  0  0  0  0  0  0  0  0  0  0
   -5.5878  -27.3098   13.4662 H   0  0  0  0  0  0  0  0  0  0  0  0
   -4.9667  -27.0616   15.1230 H   0  0  0  0  0  0  0  0  0  0  0  0
  1  2  1  0
  2  3  2  0
  3  4  1  0
  4  5  1  0
  5  6  1  0
  6  7  2  0
  6  8  1  0
  8  9  2  0
  8 10  1  0
 10 11  1  0
 11 12  1  0
 12 13  2  0
 13 14  1  0
 14 15  2  0
 15 16  1  0
 16 17  2  0
 17 18  1  0
 18 19  2  0
 19 20  1  0
 20 21  2  0
  5 22  1  0
 22 23  1  0
 23  2  1  0
 21 12  1  0
 20 15  1  0
  1 24  1  0
  1 25  1  0
  1 26  1  0
  3 27  1  0
  4 28  1  0
  4 29  1  0
 10 30  1  0
 11 31  1  0
 11 32  1  0
 13 33  1  0
 14 34  1  0
 17 35  1  0
 18 36  1  0
 19 37  1  0
 21 38  1  0
 22 39  1  0
 22 40  1  0
 23 41  1  0
 23 42  1  0
M  END
>  <Energy>  (540) 
263.4025663006264

>  <compound_id>  (540) 
62159

>  <target_id>  (540) 
1

>  <reference_id>  (540) 
68

>  <inspiration_ids>  (540) 
[85, 68]

>  <energy_score>  (540) 
164.6939893016031

>  <distance_score>  (540) 
10.031253151396337

>  <path>  (540) 
/opt/xchem-fragalysis-2/maxwin/BulkDock/SCRATCH/511021/C62159-P68/C62159-P68.minimised.mol

>  <scratch_subdir>  (540) 
/opt/xchem-fragalysis-2/maxwin/BulkDock/SCRATCH/511021/C62159-P68

>  <fragmenstein_runtime>  (540) 
22.228785514831543

>  <fragmenstein_outcome>  (540) 
too moved

>  <fragmenstein_mode>  (540) 
expansion

>  <fragmenstein_error>  (540) 


$$$$
C62178-P85
     RDKit          3D

 39 41  0  0  0  0  0  0  0  0999 V2000
    2.9282  -21.1588   12.9208 C   0  0  0  0  0  0  0  0  0  0  0  0
    1.6640  -20.3719   12.8018 C   0  0  0  0  0  0  0  0  0  0  0  0
    1.5577  -19.1918   12.2517 C   0  0  0  0  0  0  0  0  0  0  0  0
    0.1166  -18.9362   12.4723 C   0  0  0  0  0  0  0  0  0  0  0  0
   -1.1657  -19.1260   14.1517 C   0  0  0  0  0  0  0  0  0  0  0  0
   -1.6393  -20.3512   13.5144 N   0  0  0  0  0  0  0  0  0  0  0  0
   -2.9213  -21.8375   14.1121 C   0  0  0  0  0  0  0  0  0  0  0  0
   -3.4662  -22.0233   15.1636 O   0  0  0  0  0  0  0  0  0  0  0  0
   -3.3015  -23.3733   12.9044 C   0  0  0  0  0  0  0  0  0  0  0  0
   -3.4419  -23.2026   11.7649 O   0  0  0  0  0  0  0  0  0  0  0  0
   -3.4843  -24.6997   13.7119 N   0  0  0  0  0  0  0  0  0  0  0  0
   -3.7768  -26.0794   13.2636 C   0  0  0  0  0  0  0  0  0  0  0  0
   -3.9625  -26.6461   12.0334 C   0  0  0  0  0  0  0  0  0  0  0  0
   -4.3832  -28.0289   11.9512 C   0  0  0  0  0  0  0  0  0  0  0  0
   -4.6711  -28.8822   13.0512 C   0  0  0  0  0  0  0  0  0  0  0  0
   -5.0874  -30.1743   12.9368 N   0  0  0  0  0  0  0  0  0  0  0  0
   -5.3875  -30.8829   14.0586 C   0  0  0  0  0  0  0  0  0  0  0  0
   -5.3075  -30.3659   15.3308 C   0  0  0  0  0  0  0  0  0  0  0  0
   -4.8701  -29.0531   15.4441 C   0  0  0  0  0  0  0  0  0  0  0  0
   -4.5260  -28.3047   14.3011 C   0  0  0  0  0  0  0  0  0  0  0  0
   -4.0659  -26.9698   14.3691 C   0  0  0  0  0  0  0  0  0  0  0  0
    0.3878  -20.5545   13.7199 C   0  0  0  0  0  0  0  0  0  0  0  0
    3.1369  -21.3941   13.9694 H   0  0  0  0  0  0  0  0  0  0  0  0
    3.7833  -20.5889   12.5400 H   0  0  0  0  0  0  0  0  0  0  0  0
    2.8894  -22.0936   12.3570 H   0  0  0  0  0  0  0  0  0  0  0  0
    2.2585  -18.6650   11.6258 H   0  0  0  0  0  0  0  0  0  0  0  0
   -0.0231  -18.0337   11.8266 H   0  0  0  0  0  0  0  0  0  0  0  0
   -0.0451  -19.7712   11.8408 H   0  0  0  0  0  0  0  0  0  0  0  0
   -2.0151  -18.4351   14.2242 H   0  0  0  0  0  0  0  0  0  0  0  0
   -0.6638  -18.5860   15.0183 H   0  0  0  0  0  0  0  0  0  0  0  0
   -3.3703  -24.5025   14.7195 H   0  0  0  0  0  0  0  0  0  0  0  0
   -3.8112  -26.0705   11.1243 H   0  0  0  0  0  0  0  0  0  0  0  0
   -4.5116  -28.4532   10.9540 H   0  0  0  0  0  0  0  0  0  0  0  0
   -5.7177  -31.9022   13.8826 H   0  0  0  0  0  0  0  0  0  0  0  0
   -5.5875  -30.9471   16.2007 H   0  0  0  0  0  0  0  0  0  0  0  0
   -4.8244  -28.6004   16.4276 H   0  0  0  0  0  0  0  0  0  0  0  0
   -4.0165  -26.5528   15.3678 H   0  0  0  0  0  0  0  0  0  0  0  0
    0.8561  -19.6115   14.2389 H   0  0  0  0  0  0  0  0  0  0  0  0
    0.8365  -21.2835   14.3991 H   0  0  0  0  0  0  0  0  0  0  0  0
  1  2  1  0
  2  3  2  0
  3  4  1  0
  4  5  1  0
  5  6  1  0
  6  7  1  0
  7  8  2  0
  7  9  1  0
  9 10  2  0
  9 11  1  0
 11 12  1  0
 12 13  2  0
 13 14  1  0
 14 15  2  0
 15 16  1  0
 16 17  2  0
 17 18  1  0
 18 19  2  0
 19 20  1  0
 20 21  2  0
  6 22  1  0
 22  2  1  0
 21 12  1  0
 20 15  1  0
  1 23  1  0
  1 24  1  0
  1 25  1  0
  3 26  1  0
  4 27  1  0
  4 28  1  0
  5 29  1  0
  5 30  1  0
 11 31  1  0
 13 32  1  0
 14 33  1  0
 17 34  1  0
 18 35  1  0
 19 36  1  0
 21 37  1  0
 22 38  1  0
 22 39  1  0
M  END
>  <Energy>  (541) 
734.23409625851116

>  <compound_id>  (541) 
62178

>  <target_id>  (541) 
1

>  <reference_id>  (541) 
85

>  <inspiration_ids>  (541) 
[85, 68]

>  <energy_score>  (541) 
617.7742786379969

>  <distance_score>  (541) 
11.49362168712605

>  <path>  (541) 
/opt/xchem-fragalysis-2/maxwin/BulkDock/SCRATCH/511021/C62178-P85/C62178-P85.minimised.mol

>  <scratch_subdir>  (541) 
/opt/xchem-fragalysis-2/maxwin/BulkDock/SCRATCH/511021/C62178-P85

>  <fragmenstein_runtime>  (541) 
8.732921838760376

>  <fragmenstein_outcome>  (541) 
too moved

>  <fragmenstein_mode>  (541) 
expansion

>  <fragmenstein_error>  (541) 


$$$$
C62178-P68
     RDKit          3D

 39 41  0  0  0  0  0  0  0  0999 V2000
   -4.9183  -22.7247    8.1974 C   0  0  0  0  0  0  0  0  0  0  0  0
   -5.3056  -24.0680    7.6735 C   0  0  0  0  0  0  0  0  0  0  0  0
   -6.1652  -24.1294    6.6534 C   0  0  0  0  0  0  0  0  0  0  0  0
   -6.4501  -25.4726    6.1229 C   0  0  0  0  0  0  0  0  0  0  0  0
   -5.4587  -26.4525    6.7495 C   0  0  0  0  0  0  0  0  0  0  0  0
   -5.5675  -26.6677    8.2320 N   0  0  0  0  0  0  0  0  0  0  0  0
   -4.9761  -27.6626    9.0761 C   0  0  0  0  0  0  0  0  0  0  0  0
   -4.1708  -28.5238    8.8264 O   0  0  0  0  0  0  0  0  0  0  0  0
   -5.5298  -27.7253   10.5408 C   0  0  0  0  0  0  0  0  0  0  0  0
   -5.6808  -26.7148   11.1651 O   0  0  0  0  0  0  0  0  0  0  0  0
   -5.6874  -29.1190   10.9340 N   0  0  0  0  0  0  0  0  0  0  0  0
   -5.9718  -29.6981   12.1847 C   0  0  0  0  0  0  0  0  0  0  0  0
   -6.1151  -31.0894   12.2856 C   0  0  0  0  0  0  0  0  0  0  0  0
   -6.1986  -31.7280   13.5374 C   0  0  0  0  0  0  0  0  0  0  0  0
   -6.0860  -31.0097   14.7131 C   0  0  0  0  0  0  0  0  0  0  0  0
   -6.0379  -31.6526   15.8878 N   0  0  0  0  0  0  0  0  0  0  0  0
   -5.8245  -30.8794   16.9695 C   0  0  0  0  0  0  0  0  0  0  0  0
   -5.6959  -29.5092   16.9558 C   0  0  0  0  0  0  0  0  0  0  0  0
   -5.7908  -28.8488   15.7526 C   0  0  0  0  0  0  0  0  0  0  0  0
   -5.9732  -29.6017   14.6033 C   0  0  0  0  0  0  0  0  0  0  0  0
   -5.9720  -28.9565   13.3582 C   0  0  0  0  0  0  0  0  0  0  0  0
   -4.7103  -25.3605    8.2596 C   0  0  0  0  0  0  0  0  0  0  0  0
   -3.9024  -22.4801    7.8803 H   0  0  0  0  0  0  0  0  0  0  0  0
   -4.9922  -22.6963    9.2853 H   0  0  0  0  0  0  0  0  0  0  0  0
   -5.5692  -21.9281    7.8187 H   0  0  0  0  0  0  0  0  0  0  0  0
   -6.6261  -23.2568    6.2038 H   0  0  0  0  0  0  0  0  0  0  0  0
   -6.3383  -25.4810    5.0334 H   0  0  0  0  0  0  0  0  0  0  0  0
   -7.4816  -25.7558    6.3597 H   0  0  0  0  0  0  0  0  0  0  0  0
   -5.7733  -27.4370    6.3664 H   0  0  0  0  0  0  0  0  0  0  0  0
   -4.4328  -26.4100    6.3403 H   0  0  0  0  0  0  0  0  0  0  0  0
   -5.3936  -29.7171   10.1646 H   0  0  0  0  0  0  0  0  0  0  0  0
   -6.1274  -31.7049   11.3890 H   0  0  0  0  0  0  0  0  0  0  0  0
   -6.2844  -32.8101   13.5852 H   0  0  0  0  0  0  0  0  0  0  0  0
   -5.7782  -31.3752   17.9178 H   0  0  0  0  0  0  0  0  0  0  0  0
   -5.6335  -28.9657   17.8858 H   0  0  0  0  0  0  0  0  0  0  0  0
   -5.7236  -27.7666   15.7277 H   0  0  0  0  0  0  0  0  0  0  0  0
   -5.8521  -27.8771   13.3166 H   0  0  0  0  0  0  0  0  0  0  0  0
   -4.6269  -25.1663    9.3386 H   0  0  0  0  0  0  0  0  0  0  0  0
   -3.6653  -25.5360    7.9568 H   0  0  0  0  0  0  0  0  0  0  0  0
  1  2  1  0
  2  3  2  0
  3  4  1  0
  4  5  1  0
  5  6  1  0
  6  7  1  0
  7  8  2  0
  7  9  1  0
  9 10  2  0
  9 11  1  0
 11 12  1  0
 12 13  2  0
 13 14  1  0
 14 15  2  0
 15 16  1  0
 16 17  2  0
 17 18  1  0
 18 19  2  0
 19 20  1  0
 20 21  2  0
  6 22  1  0
 22  2  1  0
 21 12  1  0
 20 15  1  0
  1 23  1  0
  1 24  1  0
  1 25  1  0
  3 26  1  0
  4 27  1  0
  4 28  1  0
  5 29  1  0
  5 30  1  0
 11 31  1  0
 13 32  1  0
 14 33  1  0
 17 34  1  0
 18 35  1  0
 19 36  1  0
 21 37  1  0
 22 38  1  0
 22 39  1  0
M  END
>  <Energy>  (542) 
150.57839283318177

>  <compound_id>  (542) 
62178

>  <target_id>  (542) 
1

>  <reference_id>  (542) 
68

>  <inspiration_ids>  (542) 
[85, 68]

>  <energy_score>  (542) 
34.118575212671175

>  <distance_score>  (542) 
11.920797970904387

>  <path>  (542) 
/opt/xchem-fragalysis-2/maxwin/BulkDock/SCRATCH/511021/C62178-P68/C62178-P68.minimised.mol

>  <scratch_subdir>  (542) 
/opt/xchem-fragalysis-2/maxwin/BulkDock/SCRATCH/511021/C62178-P68

>  <fragmenstein_runtime>  (542) 
19.956923007965088

>  <fragmenstein_outcome>  (542) 
too moved

>  <fragmenstein_mode>  (542) 
expansion

>  <fragmenstein_error>  (542) 


$$$$
C13792-P112
     RDKit          3D

 46 47  0  0  0  0  0  0  0  0999 V2000
   -8.8887  -12.5264   18.9624 C   0  0  0  0  0  0  0  0  0  0  0  0
   -7.5201  -13.0722   19.6840 C   0  0  0  0  0  0  0  0  0  0  0  0
   -6.8368  -12.4943   18.4303 C   0  0  0  0  0  0  0  0  0  0  0  0
   -6.4317  -12.0674   21.1797 C   0  0  0  0  0  0  0  0  0  0  0  0
   -7.0395  -12.1327   22.2563 O   0  0  0  0  0  0  0  0  0  0  0  0
   -4.8160  -11.0680   20.9983 N   0  0  0  0  0  0  0  0  0  0  0  0
   -3.9177   -9.9463   22.2085 C   0  0  0  0  0  0  0  0  0  0  0  0
   -3.3639   -9.8205   23.7597 C   0  0  0  0  0  0  0  0  0  0  0  0
   -2.9482   -8.5052   24.0746 C   0  0  0  0  0  0  0  0  0  0  0  0
   -3.1186   -7.7968   22.9295 N   0  0  0  0  0  0  0  0  0  0  0  0
   -2.7691   -6.4195   22.4469 C   0  0  0  0  0  0  0  0  0  0  0  0
   -2.1519   -6.3885   21.0053 C   0  0  0  0  0  0  0  0  0  0  0  0
   -4.0415   -5.5652   22.3429 C   0  0  0  0  0  0  0  0  0  0  0  0
   -1.6770   -5.6940   23.2005 C   0  0  0  0  0  0  0  0  0  0  0  0
   -0.8945   -6.1348   24.0225 O   0  0  0  0  0  0  0  0  0  0  0  0
   -1.5799   -4.4081   22.7693 O   0  0  0  0  0  0  0  0  0  0  0  0
   -3.6652   -8.5515   21.9866 N   0  0  0  0  0  0  0  0  0  0  0  0
   -8.7162  -14.7656   19.7535 C   0  0  0  0  0  0  0  0  0  0  0  0
   -7.6867  -16.2981   20.6457 C   0  0  0  0  0  0  0  0  0  0  0  0
   -6.9425  -17.5448   19.3644 C   0  0  0  0  0  0  0  0  0  0  0  0
   -7.7857  -17.2437   18.1428 N   0  0  0  0  0  0  0  0  0  0  0  0
   -8.4631  -15.9044   18.2133 C   0  0  0  0  0  0  0  0  0  0  0  0
   -9.1956  -11.5343   19.1812 H   0  0  0  0  0  0  0  0  0  0  0  0
   -8.8733  -12.4977   17.8889 H   0  0  0  0  0  0  0  0  0  0  0  0
   -9.7726  -13.0787   19.1640 H   0  0  0  0  0  0  0  0  0  0  0  0
   -7.1000  -11.4680   18.1833 H   0  0  0  0  0  0  0  0  0  0  0  0
   -5.7518  -12.5264   18.4373 H   0  0  0  0  0  0  0  0  0  0  0  0
   -7.2642  -13.0628   17.6076 H   0  0  0  0  0  0  0  0  0  0  0  0
   -4.4389  -11.2142   20.0726 H   0  0  0  0  0  0  0  0  0  0  0  0
   -3.4681  -10.6308   24.4747 H   0  0  0  0  0  0  0  0  0  0  0  0
   -2.5601   -8.0778   24.9861 H   0  0  0  0  0  0  0  0  0  0  0  0
   -2.0647   -5.3671   20.6112 H   0  0  0  0  0  0  0  0  0  0  0  0
   -1.1387   -6.8077   20.9895 H   0  0  0  0  0  0  0  0  0  0  0  0
   -2.7576   -6.9340   20.2746 H   0  0  0  0  0  0  0  0  0  0  0  0
   -3.9229   -4.5638   22.7646 H   0  0  0  0  0  0  0  0  0  0  0  0
   -4.3495   -5.4034   21.3038 H   0  0  0  0  0  0  0  0  0  0  0  0
   -4.8794   -6.0569   22.8328 H   0  0  0  0  0  0  0  0  0  0  0  0
   -0.7906   -3.9549   23.1246 H   0  0  0  0  0  0  0  0  0  0  0  0
   -9.7300  -14.8135   19.3890 H   0  0  0  0  0  0  0  0  0  0  0  0
   -8.0879  -16.7914   21.5400 H   0  0  0  0  0  0  0  0  0  0  0  0
   -6.6675  -16.3136   20.8903 H   0  0  0  0  0  0  0  0  0  0  0  0
   -5.8635  -17.4820   19.1957 H   0  0  0  0  0  0  0  0  0  0  0  0
   -7.0196  -18.5702   19.7742 H   0  0  0  0  0  0  0  0  0  0  0  0
   -7.6476  -17.6346   17.2377 H   0  0  0  0  0  0  0  0  0  0  0  0
   -7.8913  -15.4015   17.4616 H   0  0  0  0  0  0  0  0  0  0  0  0
   -9.4416  -16.0304   17.8794 H   0  0  0  0  0  0  0  0  0  0  0  0
  1  2  1  0
  2  3  1  0
  2  4  1  0
  4  5  2  0
  4  6  1  0
  6  7  1  0
  7  8  1  0
  8  9  2  0
  9 10  1  0
 10 11  1  0
 11 12  1  0
 11 13  1  0
 11 14  1  0
 14 15  2  0
 14 16  1  0
 10 17  1  0
  2 18  1  0
 18 19  1  0
 19 20  1  0
 20 21  1  0
 21 22  1  0
 17  7  2  0
 22 18  1  0
  1 23  1  0
  1 24  1  0
  1 25  1  0
  3 26  1  0
  3 27  1  0
  3 28  1  0
  6 29  1  0
  8 30  1  0
  9 31  1  0
 12 32  1  0
 12 33  1  0
 12 34  1  0
 13 35  1  0
 13 36  1  0
 13 37  1  0
 16 38  1  0
 18 39  1  0
 19 40  1  0
 19 41  1  0
 20 42  1  0
 20 43  1  0
 21 44  1  0
 22 45  1  0
 22 46  1  0
M  END
>  <Energy>  (543) 
664.06436492286207

>  <compound_id>  (543) 
13792

>  <target_id>  (543) 
1

>  <reference_id>  (543) 
112

>  <inspiration_ids>  (543) 
[112, 70]

>  <energy_score>  (543) 
613.6593937155571

>  <distance_score>  (543) 
11.46755916024275

>  <path>  (543) 
/opt/xchem-fragalysis-2/maxwin/BulkDock/SCRATCH/511021/C13792-P112/C13792-P112.minimised.mol

>  <scratch_subdir>  (543) 
/opt/xchem-fragalysis-2/maxwin/BulkDock/SCRATCH/511021/C13792-P112

>  <fragmenstein_runtime>  (543) 
59.98018980026245

>  <fragmenstein_outcome>  (543) 
too moved

>  <fragmenstein_mode>  (543) 
expansion

>  <fragmenstein_error>  (543) 


$$$$
C13792-P70
     RDKit          3D

 46 47  0  0  0  0  0  0  0  0999 V2000
   -7.8147  -14.0404   14.3153 C   0  0  0  0  0  0  0  0  0  0  0  0
   -6.6424  -14.0418   16.0090 C   0  0  0  0  0  0  0  0  0  0  0  0
   -5.3374  -15.5325   16.3200 C   0  0  0  0  0  0  0  0  0  0  0  0
   -5.9228  -12.4324   17.3201 C   0  0  0  0  0  0  0  0  0  0  0  0
   -6.8727  -11.9316   17.9117 O   0  0  0  0  0  0  0  0  0  0  0  0
   -4.1357  -11.7864   17.6423 N   0  0  0  0  0  0  0  0  0  0  0  0
   -3.6245  -10.8327   18.5565 C   0  0  0  0  0  0  0  0  0  0  0  0
   -2.8556  -11.0684   19.7226 C   0  0  0  0  0  0  0  0  0  0  0  0
   -2.2222   -9.9107   20.1189 C   0  0  0  0  0  0  0  0  0  0  0  0
   -2.3956   -9.0709   19.0672 N   0  0  0  0  0  0  0  0  0  0  0  0
   -1.8377   -7.7133   18.9022 C   0  0  0  0  0  0  0  0  0  0  0  0
   -2.0265   -6.8415   20.1804 C   0  0  0  0  0  0  0  0  0  0  0  0
   -2.5155   -6.9929   17.7164 C   0  0  0  0  0  0  0  0  0  0  0  0
   -0.3297   -7.8227   18.6633 C   0  0  0  0  0  0  0  0  0  0  0  0
    0.4293   -8.6857   19.0802 O   0  0  0  0  0  0  0  0  0  0  0  0
    0.1971   -6.7770   17.9858 O   0  0  0  0  0  0  0  0  0  0  0  0
   -2.9687   -9.7407   18.0230 N   0  0  0  0  0  0  0  0  0  0  0  0
   -7.4792  -15.4274   14.9078 C   0  0  0  0  0  0  0  0  0  0  0  0
   -9.0364  -15.9086   14.0439 C   0  0  0  0  0  0  0  0  0  0  0  0
   -8.8760  -16.1735   12.5108 C   0  0  0  0  0  0  0  0  0  0  0  0
   -7.5475  -16.6669   12.3136 N   0  0  0  0  0  0  0  0  0  0  0  0
   -6.6444  -15.9936   13.2286 C   0  0  0  0  0  0  0  0  0  0  0  0
   -8.7956  -13.4943   14.3840 H   0  0  0  0  0  0  0  0  0  0  0  0
   -7.9034  -14.4750   13.3154 H   0  0  0  0  0  0  0  0  0  0  0  0
   -7.3312  -13.4099   13.4155 H   0  0  0  0  0  0  0  0  0  0  0  0
   -4.3307  -15.1127   16.4148 H   0  0  0  0  0  0  0  0  0  0  0  0
   -5.0688  -15.9689   15.3651 H   0  0  0  0  0  0  0  0  0  0  0  0
   -5.2628  -16.2622   17.1323 H   0  0  0  0  0  0  0  0  0  0  0  0
   -3.4637  -12.3814   17.1255 H   0  0  0  0  0  0  0  0  0  0  0  0
   -2.6994  -12.0089   20.1832 H   0  0  0  0  0  0  0  0  0  0  0  0
   -1.5986   -9.6804   20.9700 H   0  0  0  0  0  0  0  0  0  0  0  0
   -1.4668   -7.2510   21.0291 H   0  0  0  0  0  0  0  0  0  0  0  0
   -1.6606   -5.8209   20.0193 H   0  0  0  0  0  0  0  0  0  0  0  0
   -3.0783   -6.7856   20.4733 H   0  0  0  0  0  0  0  0  0  0  0  0
   -3.6063   -7.0090   17.8036 H   0  0  0  0  0  0  0  0  0  0  0  0
   -2.2083   -5.9426   17.6521 H   0  0  0  0  0  0  0  0  0  0  0  0
   -2.2520   -7.4611   16.7601 H   0  0  0  0  0  0  0  0  0  0  0  0
    1.1563   -6.9777   17.9408 H   0  0  0  0  0  0  0  0  0  0  0  0
   -7.7505  -16.0389   15.8048 H   0  0  0  0  0  0  0  0  0  0  0  0
   -9.4130  -16.7430   14.6273 H   0  0  0  0  0  0  0  0  0  0  0  0
   -9.7577  -15.1032   13.9563 H   0  0  0  0  0  0  0  0  0  0  0  0
   -9.6523  -16.8320   12.1103 H   0  0  0  0  0  0  0  0  0  0  0  0
   -9.0178  -15.2482   11.9332 H   0  0  0  0  0  0  0  0  0  0  0  0
   -7.2405  -16.6322   11.3451 H   0  0  0  0  0  0  0  0  0  0  0  0
   -5.6717  -16.4731   13.3131 H   0  0  0  0  0  0  0  0  0  0  0  0
   -6.3743  -15.1723   12.5331 H   0  0  0  0  0  0  0  0  0  0  0  0
  1  2  1  0
  2  3  1  0
  2  4  1  0
  4  5  2  0
  4  6  1  0
  6  7  1  0
  7  8  1  0
  8  9  2  0
  9 10  1  0
 10 11  1  0
 11 12  1  0
 11 13  1  0
 11 14  1  0
 14 15  2  0
 14 16  1  0
 10 17  1  0
  2 18  1  0
 18 19  1  0
 19 20  1  0
 20 21  1  0
 21 22  1  0
 17  7  2  0
 22 18  1  0
  1 23  1  0
  1 24  1  0
  1 25  1  0
  3 26  1  0
  3 27  1  0
  3 28  1  0
  6 29  1  0
  8 30  1  0
  9 31  1  0
 12 32  1  0
 12 33  1  0
 12 34  1  0
 13 35  1  0
 13 36  1  0
 13 37  1  0
 16 38  1  0
 18 39  1  0
 19 40  1  0
 19 41  1  0
 20 42  1  0
 20 43  1  0
 21 44  1  0
 22 45  1  0
 22 46  1  0
M  END
>  <Energy>  (544) 
815.67456856291017

>  <compound_id>  (544) 
13792

>  <target_id>  (544) 
1

>  <reference_id>  (544) 
70

>  <inspiration_ids>  (544) 
[112, 70]

>  <energy_score>  (544) 
765.269597355609

>  <distance_score>  (544) 
12.383407512343656

>  <path>  (544) 
/opt/xchem-fragalysis-2/maxwin/BulkDock/SCRATCH/511021/C13792-P70/C13792-P70.minimised.mol

>  <scratch_subdir>  (544) 
/opt/xchem-fragalysis-2/maxwin/BulkDock/SCRATCH/511021/C13792-P70

>  <fragmenstein_runtime>  (544) 
68.32793998718262

>  <fragmenstein_outcome>  (544) 
too moved

>  <fragmenstein_mode>  (544) 
expansion

>  <fragmenstein_error>  (544) 


$$$$
C49529-P112
     RDKit          3D

 49 50  0  0  0  0  0  0  0  0999 V2000
   -6.0928   -8.6222   11.6409 C   0  0  0  0  0  0  0  0  0  0  0  0
   -7.5884   -8.4973   11.9894 C   0  0  0  0  0  0  0  0  0  0  0  0
   -8.3007   -8.0916   10.6837 C   0  0  0  0  0  0  0  0  0  0  0  0
   -7.9287   -7.2890   13.0727 C   0  0  0  0  0  0  0  0  0  0  0  0
   -9.0772   -7.2315   13.4280 O   0  0  0  0  0  0  0  0  0  0  0  0
   -6.7806   -6.4605   13.4295 N   0  0  0  0  0  0  0  0  0  0  0  0
   -6.6529   -5.4246   14.3487 C   0  0  0  0  0  0  0  0  0  0  0  0
   -7.6419   -4.7374   15.0854 C   0  0  0  0  0  0  0  0  0  0  0  0
   -6.9768   -3.7824   15.8276 C   0  0  0  0  0  0  0  0  0  0  0  0
   -5.6453   -4.0038   15.6320 N   0  0  0  0  0  0  0  0  0  0  0  0
   -4.5033   -3.2972   16.2400 C   0  0  0  0  0  0  0  0  0  0  0  0
   -4.8039   -2.7500   17.6630 C   0  0  0  0  0  0  0  0  0  0  0  0
   -3.2950   -4.2528   16.3611 C   0  0  0  0  0  0  0  0  0  0  0  0
   -4.1741   -2.0851   15.3709 C   0  0  0  0  0  0  0  0  0  0  0  0
   -4.9720   -1.3502   14.8069 O   0  0  0  0  0  0  0  0  0  0  0  0
   -2.8604   -1.7726   15.3208 O   0  0  0  0  0  0  0  0  0  0  0  0
   -5.4351   -4.9577   14.6841 N   0  0  0  0  0  0  0  0  0  0  0  0
   -8.1399   -9.9228   12.5431 C   0  0  0  0  0  0  0  0  0  0  0  0
   -9.6626  -10.1481   12.4629 C   0  0  0  0  0  0  0  0  0  0  0  0
  -10.1636  -10.9381   11.2402 C   0  0  0  0  0  0  0  0  0  0  0  0
   -9.3778  -12.2156   10.9960 C   0  0  0  0  0  0  0  0  0  0  0  0
   -7.9625  -11.8702   10.8660 N   0  0  0  0  0  0  0  0  0  0  0  0
   -7.4658  -11.2613   12.1027 C   0  0  0  0  0  0  0  0  0  0  0  0
   -5.9255   -9.3628   10.8510 H   0  0  0  0  0  0  0  0  0  0  0  0
   -5.5004   -8.9163   12.5122 H   0  0  0  0  0  0  0  0  0  0  0  0
   -5.6845   -7.6831   11.2496 H   0  0  0  0  0  0  0  0  0  0  0  0
   -9.3717   -7.9222   10.8322 H   0  0  0  0  0  0  0  0  0  0  0  0
   -8.1774   -8.8540    9.9075 H   0  0  0  0  0  0  0  0  0  0  0  0
   -7.8917   -7.1509   10.2958 H   0  0  0  0  0  0  0  0  0  0  0  0
   -5.9551   -6.8441   13.0086 H   0  0  0  0  0  0  0  0  0  0  0  0
   -8.7124   -4.8807   15.0307 H   0  0  0  0  0  0  0  0  0  0  0  0
   -7.3512   -2.9901   16.4585 H   0  0  0  0  0  0  0  0  0  0  0  0
   -3.9242   -2.2401   18.0624 H   0  0  0  0  0  0  0  0  0  0  0  0
   -5.6180   -2.0170   17.6553 H   0  0  0  0  0  0  0  0  0  0  0  0
   -5.0776   -3.5571   18.3502 H   0  0  0  0  0  0  0  0  0  0  0  0
   -2.4640   -3.7862   16.9032 H   0  0  0  0  0  0  0  0  0  0  0  0
   -3.5664   -5.1682   16.8997 H   0  0  0  0  0  0  0  0  0  0  0  0
   -2.9079   -4.5445   15.3774 H   0  0  0  0  0  0  0  0  0  0  0  0
   -2.8251   -0.9815   14.7408 H   0  0  0  0  0  0  0  0  0  0  0  0
   -7.9173   -9.8483   13.6181 H   0  0  0  0  0  0  0  0  0  0  0  0
   -9.8907  -10.7109   13.3683 H   0  0  0  0  0  0  0  0  0  0  0  0
  -10.2240   -9.2138   12.5468 H   0  0  0  0  0  0  0  0  0  0  0  0
  -11.2258  -11.1761   11.3554 H   0  0  0  0  0  0  0  0  0  0  0  0
  -10.0977  -10.2987   10.3516 H   0  0  0  0  0  0  0  0  0  0  0  0
   -9.5307  -12.9403   11.8034 H   0  0  0  0  0  0  0  0  0  0  0  0
   -9.7207  -12.6845   10.0676 H   0  0  0  0  0  0  0  0  0  0  0  0
   -7.4362  -12.7237   10.6793 H   0  0  0  0  0  0  0  0  0  0  0  0
   -7.6248  -11.9962   12.8980 H   0  0  0  0  0  0  0  0  0  0  0  0
   -6.3807  -11.1477   12.0366 H   0  0  0  0  0  0  0  0  0  0  0  0
  1  2  1  0
  2  3  1  0
  2  4  1  0
  4  5  2  0
  4  6  1  0
  6  7  1  0
  7  8  1  0
  8  9  2  0
  9 10  1  0
 10 11  1  0
 11 12  1  0
 11 13  1  0
 11 14  1  0
 14 15  2  0
 14 16  1  0
 10 17  1  0
  2 18  1  0
 18 19  1  0
 19 20  1  0
 20 21  1  0
 21 22  1  0
 22 23  1  0
 17  7  2  0
 23 18  1  0
  1 24  1  0
  1 25  1  0
  1 26  1  0
  3 27  1  0
  3 28  1  0
  3 29  1  0
  6 30  1  0
  8 31  1  0
  9 32  1  0
 12 33  1  0
 12 34  1  0
 12 35  1  0
 13 36  1  0
 13 37  1  0
 13 38  1  0
 16 39  1  0
 18 40  1  0
 19 41  1  0
 19 42  1  0
 20 43  1  0
 20 44  1  0
 21 45  1  0
 21 46  1  0
 22 47  1  0
 23 48  1  0
 23 49  1  0
M  END
>  <Energy>  (545) 
0.069724853407195475

>  <compound_id>  (545) 
49529

>  <target_id>  (545) 
1

>  <reference_id>  (545) 
112

>  <inspiration_ids>  (545) 
[112, 70]

>  <energy_score>  (545) 
-78.5028090343609

>  <distance_score>  (545) 
14.3517056489246

>  <path>  (545) 
/opt/xchem-fragalysis-2/maxwin/BulkDock/SCRATCH/511021/C49529-P112/C49529-P112.minimised.mol

>  <scratch_subdir>  (545) 
/opt/xchem-fragalysis-2/maxwin/BulkDock/SCRATCH/511021/C49529-P112

>  <fragmenstein_runtime>  (545) 
31.06130051612854

>  <fragmenstein_outcome>  (545) 
too moved

>  <fragmenstein_mode>  (545) 
expansion

>  <fragmenstein_error>  (545) 


$$$$
C49529-P70
     RDKit          3D

 49 50  0  0  0  0  0  0  0  0999 V2000
   -7.3262  -11.8330   22.3527 C   0  0  0  0  0  0  0  0  0  0  0  0
   -9.1271  -12.0233   21.8781 C   0  0  0  0  0  0  0  0  0  0  0  0
  -10.7376  -11.6054   22.9392 C   0  0  0  0  0  0  0  0  0  0  0  0
   -9.4140  -10.1301   22.6354 C   0  0  0  0  0  0  0  0  0  0  0  0
  -10.8444   -9.4234   23.0343 O   0  0  0  0  0  0  0  0  0  0  0  0
   -8.7054   -9.3087   22.7692 N   0  0  0  0  0  0  0  0  0  0  0  0
   -8.5798   -7.7636   23.0833 C   0  0  0  0  0  0  0  0  0  0  0  0
   -7.7127   -6.6522   21.8435 C   0  0  0  0  0  0  0  0  0  0  0  0
   -6.7688   -5.4468   22.4448 C   0  0  0  0  0  0  0  0  0  0  0  0
   -7.3122   -5.1762   23.7639 N   0  0  0  0  0  0  0  0  0  0  0  0
   -7.9368   -4.1151   24.8846 C   0  0  0  0  0  0  0  0  0  0  0  0
   -7.1715   -2.8035   24.9786 C   0  0  0  0  0  0  0  0  0  0  0  0
   -7.8823   -4.7633   26.3259 C   0  0  0  0  0  0  0  0  0  0  0  0
   -9.3526   -3.4982   24.8296 C   0  0  0  0  0  0  0  0  0  0  0  0
  -10.2635   -3.6641   25.6276 O   0  0  0  0  0  0  0  0  0  0  0  0
   -9.5755   -2.6004   23.8373 O   0  0  0  0  0  0  0  0  0  0  0  0
   -7.3778   -6.7351   24.1317 N   0  0  0  0  0  0  0  0  0  0  0  0
   -8.9221  -13.4419   20.1907 C   0  0  0  0  0  0  0  0  0  0  0  0
   -8.3732  -15.5016   20.0392 C   0  0  0  0  0  0  0  0  0  0  0  0
   -8.0415  -16.8075   19.1194 C   0  0  0  0  0  0  0  0  0  0  0  0
   -8.9272  -16.6147   17.9540 C   0  0  0  0  0  0  0  0  0  0  0  0
   -8.8279  -15.1867   17.8751 N   0  0  0  0  0  0  0  0  0  0  0  0
   -9.1923  -13.6075   18.7904 C   0  0  0  0  0  0  0  0  0  0  0  0
   -6.6046  -12.5507   22.7423 H   0  0  0  0  0  0  0  0  0  0  0  0
   -7.1706  -11.0027   23.0099 H   0  0  0  0  0  0  0  0  0  0  0  0
   -6.7931  -11.9315   21.4329 H   0  0  0  0  0  0  0  0  0  0  0  0
  -11.3537  -12.3873   23.3308 H   0  0  0  0  0  0  0  0  0  0  0  0
  -11.5358  -11.1361   22.3779 H   0  0  0  0  0  0  0  0  0  0  0  0
  -10.4945  -11.2646   23.9659 H   0  0  0  0  0  0  0  0  0  0  0  0
   -7.8705   -8.8962   22.7130 H   0  0  0  0  0  0  0  0  0  0  0  0
   -7.9826   -6.7975   20.8091 H   0  0  0  0  0  0  0  0  0  0  0  0
   -6.2551   -4.6762   21.8811 H   0  0  0  0  0  0  0  0  0  0  0  0
   -7.7567   -1.8810   25.0697 H   0  0  0  0  0  0  0  0  0  0  0  0
   -6.6057   -2.7761   24.0704 H   0  0  0  0  0  0  0  0  0  0  0  0
   -6.5303   -2.7732   25.8523 H   0  0  0  0  0  0  0  0  0  0  0  0
   -8.7818   -5.3260   26.5779 H   0  0  0  0  0  0  0  0  0  0  0  0
   -7.8283   -3.9881   27.1024 H   0  0  0  0  0  0  0  0  0  0  0  0
   -7.0432   -5.4351   26.4907 H   0  0  0  0  0  0  0  0  0  0  0  0
  -10.4720   -2.2512   24.0430 H   0  0  0  0  0  0  0  0  0  0  0  0
   -7.9195  -13.1143   19.6885 H   0  0  0  0  0  0  0  0  0  0  0  0
   -7.9629  -16.0420   20.8952 H   0  0  0  0  0  0  0  0  0  0  0  0
   -9.3229  -15.9178   19.6934 H   0  0  0  0  0  0  0  0  0  0  0  0
   -6.9805  -16.9821   18.9329 H   0  0  0  0  0  0  0  0  0  0  0  0
   -8.3282  -17.7307   19.6449 H   0  0  0  0  0  0  0  0  0  0  0  0
   -8.5122  -17.1110   17.0713 H   0  0  0  0  0  0  0  0  0  0  0  0
   -9.9481  -16.9780   18.0886 H   0  0  0  0  0  0  0  0  0  0  0  0
   -8.0856  -14.9565   17.2301 H   0  0  0  0  0  0  0  0  0  0  0  0
  -10.2424  -13.3924   18.6907 H   0  0  0  0  0  0  0  0  0  0  0  0
   -8.6682  -12.8275   18.1768 H   0  0  0  0  0  0  0  0  0  0  0  0
  1  2  1  0
  2  3  1  0
  2  4  1  0
  4  5  2  0
  4  6  1  0
  6  7  1  0
  7  8  1  0
  8  9  2  0
  9 10  1  0
 10 11  1  0
 11 12  1  0
 11 13  1  0
 11 14  1  0
 14 15  2  0
 14 16  1  0
 10 17  1  0
  2 18  1  0
 18 19  1  0
 19 20  1  0
 20 21  1  0
 21 22  1  0
 22 23  1  0
 17  7  2  0
 23 18  1  0
  1 24  1  0
  1 25  1  0
  1 26  1  0
  3 27  1  0
  3 28  1  0
  3 29  1  0
  6 30  1  0
  8 31  1  0
  9 32  1  0
 12 33  1  0
 12 34  1  0
 12 35  1  0
 13 36  1  0
 13 37  1  0
 13 38  1  0
 16 39  1  0
 18 40  1  0
 19 41  1  0
 19 42  1  0
 20 43  1  0
 20 44  1  0
 21 45  1  0
 21 46  1  0
 22 47  1  0
 23 48  1  0
 23 49  1  0
M  END
>  <Energy>  (546) 
1310.7918311532439

>  <compound_id>  (546) 
49529

>  <target_id>  (546) 
1

>  <reference_id>  (546) 
70

>  <inspiration_ids>  (546) 
[112, 70]

>  <energy_score>  (546) 
1232.219297265472

>  <distance_score>  (546) 
11.300375974791196

>  <path>  (546) 
/opt/xchem-fragalysis-2/maxwin/BulkDock/SCRATCH/511021/C49529-P70/C49529-P70.minimised.mol

>  <scratch_subdir>  (546) 
/opt/xchem-fragalysis-2/maxwin/BulkDock/SCRATCH/511021/C49529-P70

>  <fragmenstein_runtime>  (546) 
38.46369910240173

>  <fragmenstein_outcome>  (546) 
too moved

>  <fragmenstein_mode>  (546) 
expansion

>  <fragmenstein_error>  (546) 


$$$$
C51128-P112
     RDKit          3D

 52 53  0  0  0  0  0  0  0  0999 V2000
   -0.7491   -8.8485   18.3809 C   0  0  0  0  0  0  0  0  0  0  0  0
   -1.8312   -9.9051   18.5760 C   0  0  0  0  0  0  0  0  0  0  0  0
   -1.4782  -10.9488   19.6722 C   0  0  0  0  0  0  0  0  0  0  0  0
   -2.0120  -12.3446   19.3769 N   0  0  0  0  0  0  0  0  0  0  0  0
   -1.9052  -13.1863   18.1595 C   0  0  0  0  0  0  0  0  0  0  0  0
   -1.4400  -12.9420   17.0784 O   0  0  0  0  0  0  0  0  0  0  0  0
   -2.3937  -14.7391   18.3033 C   0  0  0  0  0  0  0  0  0  0  0  0
   -2.2018  -15.2614   19.3686 O   0  0  0  0  0  0  0  0  0  0  0  0
   -3.0015  -15.2765   17.0582 N   0  0  0  0  0  0  0  0  0  0  0  0
   -3.4831  -16.6905   16.7030 C   0  0  0  0  0  0  0  0  0  0  0  0
   -5.0633  -17.0093   16.6014 C   0  0  0  0  0  0  0  0  0  0  0  0
   -5.8888  -17.2268   15.2608 C   0  0  0  0  0  0  0  0  0  0  0  0
   -7.3237  -16.7479   15.2461 N   0  0  0  0  0  0  0  0  0  0  0  0
   -7.9383  -16.4142   13.9429 C   0  0  0  0  0  0  0  0  0  0  0  0
   -9.4990  -16.3449   13.7947 C   0  0  0  0  0  0  0  0  0  0  0  0
  -10.4047  -17.2064   14.5949 N   0  0  0  0  0  0  0  0  0  0  0  0
   -9.7659  -17.7289   15.8842 C   0  0  0  0  0  0  0  0  0  0  0  0
   -8.2624  -17.1221   16.3057 C   0  0  0  0  0  0  0  0  0  0  0  0
   -1.7197  -10.3515   21.1113 C   0  0  0  0  0  0  0  0  0  0  0  0
   -1.3447  -10.9166   22.3616 C   0  0  0  0  0  0  0  0  0  0  0  0
   -1.5440   -9.9397   23.3145 C   0  0  0  0  0  0  0  0  0  0  0  0
   -1.9955   -8.8503   22.6396 N   0  0  0  0  0  0  0  0  0  0  0  0
   -2.2545   -7.5424   23.2097 C   0  0  0  0  0  0  0  0  0  0  0  0
   -2.1582   -9.0835   21.3196 N   0  0  0  0  0  0  0  0  0  0  0  0
   -0.5734   -8.2662   19.2893 H   0  0  0  0  0  0  0  0  0  0  0  0
   -1.0455   -8.1521   17.5898 H   0  0  0  0  0  0  0  0  0  0  0  0
    0.1971   -9.3116   18.0830 H   0  0  0  0  0  0  0  0  0  0  0  0
   -1.9707  -10.4094   17.6134 H   0  0  0  0  0  0  0  0  0  0  0  0
   -2.7787   -9.4151   18.8004 H   0  0  0  0  0  0  0  0  0  0  0  0
   -0.3918  -11.1094   19.6179 H   0  0  0  0  0  0  0  0  0  0  0  0
   -2.3892  -12.9046   20.1372 H   0  0  0  0  0  0  0  0  0  0  0  0
   -2.9271  -14.5791   16.3236 H   0  0  0  0  0  0  0  0  0  0  0  0
   -3.0071  -16.9444   15.7510 H   0  0  0  0  0  0  0  0  0  0  0  0
   -3.0650  -17.3362   17.4828 H   0  0  0  0  0  0  0  0  0  0  0  0
   -5.2747  -17.8593   17.2612 H   0  0  0  0  0  0  0  0  0  0  0  0
   -5.4855  -16.1389   17.0420 H   0  0  0  0  0  0  0  0  0  0  0  0
   -5.7886  -18.2712   14.9803 H   0  0  0  0  0  0  0  0  0  0  0  0
   -5.3414  -16.7537   14.4409 H   0  0  0  0  0  0  0  0  0  0  0  0
   -7.5965  -15.4233   13.6293 H   0  0  0  0  0  0  0  0  0  0  0  0
   -7.5509  -17.0708   13.1576 H   0  0  0  0  0  0  0  0  0  0  0  0
   -9.7840  -15.3037   13.9750 H   0  0  0  0  0  0  0  0  0  0  0  0
   -9.7359  -16.4965   12.7352 H   0  0  0  0  0  0  0  0  0  0  0  0
  -10.7516  -17.9924   14.0563 H   0  0  0  0  0  0  0  0  0  0  0  0
  -10.3965  -17.6076   16.7788 H   0  0  0  0  0  0  0  0  0  0  0  0
   -9.9226  -18.7901   15.7908 H   0  0  0  0  0  0  0  0  0  0  0  0
   -7.7556  -17.7057   17.0878 H   0  0  0  0  0  0  0  0  0  0  0  0
   -8.4423  -16.2701   16.9414 H   0  0  0  0  0  0  0  0  0  0  0  0
   -0.9276  -11.9009   22.5281 H   0  0  0  0  0  0  0  0  0  0  0  0
   -1.3554   -9.9264   24.3785 H   0  0  0  0  0  0  0  0  0  0  0  0
   -3.0912   -7.0898   22.6731 H   0  0  0  0  0  0  0  0  0  0  0  0
   -1.3374   -6.9594   23.1113 H   0  0  0  0  0  0  0  0  0  0  0  0
   -2.5120   -7.6592   24.2648 H   0  0  0  0  0  0  0  0  0  0  0  0
  1  2  1  0
  2  3  1  0
  3  4  1  0
  4  5  1  0
  5  6  2  0
  5  7  1  0
  7  8  2  0
  7  9  1  0
  9 10  1  0
 10 11  1  0
 11 12  1  0
 12 13  1  0
 13 14  1  0
 14 15  1  0
 15 16  1  0
 16 17  1  0
 17 18  1  0
  3 19  1  0
 19 20  1  0
 20 21  2  0
 21 22  1  0
 22 23  1  0
 22 24  1  0
 18 13  1  0
 24 19  2  0
  1 25  1  0
  1 26  1  0
  1 27  1  0
  2 28  1  0
  2 29  1  0
  3 30  1  0
  4 31  1  0
  9 32  1  0
 10 33  1  0
 10 34  1  0
 11 35  1  0
 11 36  1  0
 12 37  1  0
 12 38  1  0
 14 39  1  0
 14 40  1  0
 15 41  1  0
 15 42  1  0
 16 43  1  0
 17 44  1  0
 17 45  1  0
 18 46  1  0
 18 47  1  0
 20 48  1  0
 21 49  1  0
 23 50  1  0
 23 51  1  0
 23 52  1  0
M  END
>  <Energy>  (547) 
191.60081276669135

>  <compound_id>  (547) 
51128

>  <target_id>  (547) 
1

>  <reference_id>  (547) 
112

>  <inspiration_ids>  (547) 
[112, 70]

>  <energy_score>  (547) 
32.373954217497214

>  <distance_score>  (547) 
11.606806134269274

>  <path>  (547) 
/opt/xchem-fragalysis-2/maxwin/BulkDock/SCRATCH/511021/C51128-P112/C51128-P112.minimised.mol

>  <scratch_subdir>  (547) 
/opt/xchem-fragalysis-2/maxwin/BulkDock/SCRATCH/511021/C51128-P112

>  <fragmenstein_runtime>  (547) 
29.178846836090088

>  <fragmenstein_outcome>  (547) 
too moved

>  <fragmenstein_mode>  (547) 
expansion

>  <fragmenstein_error>  (547) 


$$$$
C51128-P70
     RDKit          3D

 52 53  0  0  0  0  0  0  0  0999 V2000
   -6.5542   -5.8986   22.5947 C   0  0  0  0  0  0  0  0  0  0  0  0
   -7.7232   -6.7816   21.5109 C   0  0  0  0  0  0  0  0  0  0  0  0
   -8.2415   -6.5060   19.8822 C   0  0  0  0  0  0  0  0  0  0  0  0
   -9.4578   -7.8433   19.2941 N   0  0  0  0  0  0  0  0  0  0  0  0
   -9.2126   -9.6640   18.6913 C   0  0  0  0  0  0  0  0  0  0  0  0
   -8.0981  -10.0907   18.7629 O   0  0  0  0  0  0  0  0  0  0  0  0
  -10.5017  -11.1413   17.6888 C   0  0  0  0  0  0  0  0  0  0  0  0
  -10.4669  -12.1816   18.2859 O   0  0  0  0  0  0  0  0  0  0  0  0
  -11.4741  -11.1142   15.9864 N   0  0  0  0  0  0  0  0  0  0  0  0
  -12.2884  -12.4523   14.9738 C   0  0  0  0  0  0  0  0  0  0  0  0
  -13.7843  -13.6788   14.7760 C   0  0  0  0  0  0  0  0  0  0  0  0
  -13.8688  -15.3907   14.1141 C   0  0  0  0  0  0  0  0  0  0  0  0
  -15.0732  -16.5801   14.1910 N   0  0  0  0  0  0  0  0  0  0  0  0
  -16.1866  -16.4772   13.1580 C   0  0  0  0  0  0  0  0  0  0  0  0
  -17.3340  -17.7039   12.8792 C   0  0  0  0  0  0  0  0  0  0  0  0
  -17.0672  -19.2514   12.5662 N   0  0  0  0  0  0  0  0  0  0  0  0
  -15.6421  -19.8009   13.4479 C   0  0  0  0  0  0  0  0  0  0  0  0
  -14.5566  -18.1912   14.0913 C   0  0  0  0  0  0  0  0  0  0  0  0
   -6.8396   -5.1899   19.6377 C   0  0  0  0  0  0  0  0  0  0  0  0
   -5.7020   -4.2988   18.6480 C   0  0  0  0  0  0  0  0  0  0  0  0
   -4.8610   -3.6853   19.4532 C   0  0  0  0  0  0  0  0  0  0  0  0
   -5.2283   -4.1349   20.6955 N   0  0  0  0  0  0  0  0  0  0  0  0
   -4.6203   -3.9545   22.0135 C   0  0  0  0  0  0  0  0  0  0  0  0
   -6.5080   -4.4741   20.7355 N   0  0  0  0  0  0  0  0  0  0  0  0
   -6.8060   -4.8762   22.7950 H   0  0  0  0  0  0  0  0  0  0  0  0
   -5.5062   -6.1154   22.3971 H   0  0  0  0  0  0  0  0  0  0  0  0
   -6.5393   -6.2311   23.6397 H   0  0  0  0  0  0  0  0  0  0  0  0
   -8.5901   -6.4417   21.8536 H   0  0  0  0  0  0  0  0  0  0  0  0
   -8.2403   -7.5248   22.0847 H   0  0  0  0  0  0  0  0  0  0  0  0
   -9.0259   -5.7576   19.7749 H   0  0  0  0  0  0  0  0  0  0  0  0
  -10.4453   -7.6281   19.2652 H   0  0  0  0  0  0  0  0  0  0  0  0
  -11.3530  -10.2378   15.5641 H   0  0  0  0  0  0  0  0  0  0  0  0
  -11.6126  -12.5464   14.1028 H   0  0  0  0  0  0  0  0  0  0  0  0
  -12.9213  -11.6504   14.5332 H   0  0  0  0  0  0  0  0  0  0  0  0
  -14.3906  -13.7174   15.6883 H   0  0  0  0  0  0  0  0  0  0  0  0
  -14.4065  -13.1354   14.0483 H   0  0  0  0  0  0  0  0  0  0  0  0
  -12.9894  -15.9028   14.5060 H   0  0  0  0  0  0  0  0  0  0  0  0
  -13.7144  -15.1973   13.0496 H   0  0  0  0  0  0  0  0  0  0  0  0
  -15.7525  -16.2431   12.1799 H   0  0  0  0  0  0  0  0  0  0  0  0
  -16.7777  -15.5964   13.4375 H   0  0  0  0  0  0  0  0  0  0  0  0
  -18.0412  -17.6711   13.7198 H   0  0  0  0  0  0  0  0  0  0  0  0
  -17.9085  -17.3617   12.0091 H   0  0  0  0  0  0  0  0  0  0  0  0
  -17.8484  -19.7345   13.0134 H   0  0  0  0  0  0  0  0  0  0  0  0
  -15.0278  -20.6486   13.1341 H   0  0  0  0  0  0  0  0  0  0  0  0
  -16.3961  -20.4024   13.9505 H   0  0  0  0  0  0  0  0  0  0  0  0
  -13.6437  -18.0561   13.6107 H   0  0  0  0  0  0  0  0  0  0  0  0
  -14.0767  -18.3607   15.0404 H   0  0  0  0  0  0  0  0  0  0  0  0
   -5.6238   -4.3692   17.5535 H   0  0  0  0  0  0  0  0  0  0  0  0
   -4.0812   -3.0095   19.1317 H   0  0  0  0  0  0  0  0  0  0  0  0
   -3.8868   -3.1677   22.0664 H   0  0  0  0  0  0  0  0  0  0  0  0
   -4.1290   -4.8783   22.3064 H   0  0  0  0  0  0  0  0  0  0  0  0
   -5.3960   -3.6288   22.6975 H   0  0  0  0  0  0  0  0  0  0  0  0
  1  2  1  0
  2  3  1  0
  3  4  1  0
  4  5  1  0
  5  6  2  0
  5  7  1  0
  7  8  2  0
  7  9  1  0
  9 10  1  0
 10 11  1  0
 11 12  1  0
 12 13  1  0
 13 14  1  0
 14 15  1  0
 15 16  1  0
 16 17  1  0
 17 18  1  0
  3 19  1  0
 19 20  1  0
 20 21  2  0
 21 22  1  0
 22 23  1  0
 22 24  1  0
 18 13  1  0
 24 19  2  0
  1 25  1  0
  1 26  1  0
  1 27  1  0
  2 28  1  0
  2 29  1  0
  3 30  1  0
  4 31  1  0
  9 32  1  0
 10 33  1  0
 10 34  1  0
 11 35  1  0
 11 36  1  0
 12 37  1  0
 12 38  1  0
 14 39  1  0
 14 40  1  0
 15 41  1  0
 15 42  1  0
 16 43  1  0
 17 44  1  0
 17 45  1  0
 18 46  1  0
 18 47  1  0
 20 48  1  0
 21 49  1  0
 23 50  1  0
 23 51  1  0
 23 52  1  0
M  END
>  <Energy>  (548) 
1144.9573915298861

>  <compound_id>  (548) 
51128

>  <target_id>  (548) 
1

>  <reference_id>  (548) 
70

>  <inspiration_ids>  (548) 
[112, 70]

>  <energy_score>  (548) 
985.7305329806914

>  <distance_score>  (548) 
9.661380346866219

>  <path>  (548) 
/opt/xchem-fragalysis-2/maxwin/BulkDock/SCRATCH/511021/C51128-P70/C51128-P70.minimised.mol

>  <scratch_subdir>  (548) 
/opt/xchem-fragalysis-2/maxwin/BulkDock/SCRATCH/511021/C51128-P70

>  <fragmenstein_runtime>  (548) 
23.679826259613037

>  <fragmenstein_outcome>  (548) 
too moved

>  <fragmenstein_mode>  (548) 
expansion

>  <fragmenstein_error>  (548) 


$$$$
C60256-P46
     RDKit          3D

 63 64  0  0  0  0  0  0  0  0999 V2000
    7.7637   -9.4285   20.4125 C   0  0  0  0  0  0  0  0  0  0  0  0
    8.0070   -9.4403   21.9092 C   0  0  0  0  0  0  0  0  0  0  0  0
    6.7566   -9.1551   22.7699 C   0  0  0  0  0  0  0  0  0  0  0  0
    5.6206  -10.2319   22.7254 C   0  0  0  0  0  0  0  0  0  0  0  0
    4.8470  -10.4261   24.0980 C   0  0  0  0  0  0  0  0  0  0  0  0
    3.5952  -11.4577   24.1544 C   0  0  0  0  0  0  0  0  0  0  0  0
    3.2553  -12.2070   25.6064 C   0  0  0  0  0  0  0  0  0  0  0  0
    1.9013  -12.4080   26.7398 C   0  0  0  0  0  0  0  0  0  0  0  0
    0.4308  -13.6662   26.8215 C   0  0  0  0  0  0  0  0  0  0  0  0
   -1.0746  -14.8594   27.8794 C   0  0  0  0  0  0  0  0  0  0  0  0
   -2.7390  -14.9644   28.9483 C   0  0  0  0  0  0  0  0  0  0  0  0
   -2.8233  -14.0327   29.6115 O   0  0  0  0  0  0  0  0  0  0  0  0
   -3.9395  -16.3802   28.6398 N   0  0  0  0  0  0  0  0  0  0  0  0
   -5.6275  -16.9569   29.3564 C   0  0  0  0  0  0  0  0  0  0  0  0
   -6.8418  -18.4127   30.1580 C   0  0  0  0  0  0  0  0  0  0  0  0
   -8.2366  -18.9418   28.7298 C   0  0  0  0  0  0  0  0  0  0  0  0
   -9.8432  -20.2466   29.2033 N   0  0  0  0  0  0  0  0  0  0  0  0
  -10.4701  -20.8098   30.7951 C   0  0  0  0  0  0  0  0  0  0  0  0
  -11.6674  -21.7503   30.9905 C   0  0  0  0  0  0  0  0  0  0  0  0
  -12.4259  -21.9049   29.7835 N   0  0  0  0  0  0  0  0  0  0  0  0
  -11.5263  -22.4981   28.8209 C   0  0  0  0  0  0  0  0  0  0  0  0
  -10.3133  -21.6048   28.4098 C   0  0  0  0  0  0  0  0  0  0  0  0
   -7.4954  -17.0852   28.3134 C   0  0  0  0  0  0  0  0  0  0  0  0
   -5.7961  -16.3465   29.3468 C   0  0  0  0  0  0  0  0  0  0  0  0
    7.1887  -10.3119   20.1150 H   0  0  0  0  0  0  0  0  0  0  0  0
    7.1906   -8.5533   20.1000 H   0  0  0  0  0  0  0  0  0  0  0  0
    8.7141   -9.4575   19.8755 H   0  0  0  0  0  0  0  0  0  0  0  0
    8.4217  -10.4147   22.1947 H   0  0  0  0  0  0  0  0  0  0  0  0
    8.7751   -8.7041   22.1581 H   0  0  0  0  0  0  0  0  0  0  0  0
    6.3320   -8.1811   22.4991 H   0  0  0  0  0  0  0  0  0  0  0  0
    7.0980   -9.0649   23.8088 H   0  0  0  0  0  0  0  0  0  0  0  0
    6.0494  -11.2034   22.4530 H   0  0  0  0  0  0  0  0  0  0  0  0
    4.9002   -9.9645   21.9441 H   0  0  0  0  0  0  0  0  0  0  0  0
    5.5827  -10.7705   24.8351 H   0  0  0  0  0  0  0  0  0  0  0  0
    4.4816   -9.4513   24.4420 H   0  0  0  0  0  0  0  0  0  0  0  0
    3.8589  -12.2813   23.4769 H   0  0  0  0  0  0  0  0  0  0  0  0
    2.7225  -10.9891   23.7021 H   0  0  0  0  0  0  0  0  0  0  0  0
    3.9883  -11.7333   26.2777 H   0  0  0  0  0  0  0  0  0  0  0  0
    3.6240  -13.2331   25.4830 H   0  0  0  0  0  0  0  0  0  0  0  0
    2.5466  -12.6985   27.5878 H   0  0  0  0  0  0  0  0  0  0  0  0
    1.5322  -11.4458   27.0746 H   0  0  0  0  0  0  0  0  0  0  0  0
    1.2099  -14.3851   26.6479 H   0  0  0  0  0  0  0  0  0  0  0  0
   -0.0035  -13.1870   25.9851 H   0  0  0  0  0  0  0  0  0  0  0  0
   -1.7911  -15.0922   27.0683 H   0  0  0  0  0  0  0  0  0  0  0  0
   -0.6786  -15.7086   28.3816 H   0  0  0  0  0  0  0  0  0  0  0  0
   -5.5066  -17.7464   28.4200 H   0  0  0  0  0  0  0  0  0  0  0  0
   -5.2555  -17.9371   29.4669 H   0  0  0  0  0  0  0  0  0  0  0  0
   -6.3263  -19.2485   30.6281 H   0  0  0  0  0  0  0  0  0  0  0  0
   -7.0956  -17.9564   31.1559 H   0  0  0  0  0  0  0  0  0  0  0  0
   -8.8865  -18.4468   28.0199 H   0  0  0  0  0  0  0  0  0  0  0  0
  -10.5682  -20.0497   31.5555 H   0  0  0  0  0  0  0  0  0  0  0  0
   -9.7504  -21.3160   31.3871 H   0  0  0  0  0  0  0  0  0  0  0  0
  -11.3220  -22.7318   31.3461 H   0  0  0  0  0  0  0  0  0  0  0  0
  -12.3112  -21.3797   31.7945 H   0  0  0  0  0  0  0  0  0  0  0  0
  -13.1843  -22.5411   29.9756 H   0  0  0  0  0  0  0  0  0  0  0  0
  -11.1592  -23.4667   29.1881 H   0  0  0  0  0  0  0  0  0  0  0  0
  -12.1040  -22.7459   27.9213 H   0  0  0  0  0  0  0  0  0  0  0  0
   -9.4851  -22.3131   28.3450 H   0  0  0  0  0  0  0  0  0  0  0  0
  -10.6834  -21.3509   27.4278 H   0  0  0  0  0  0  0  0  0  0  0  0
   -8.1092  -16.2568   28.4937 H   0  0  0  0  0  0  0  0  0  0  0  0
   -7.8605  -16.7106   27.3415 H   0  0  0  0  0  0  0  0  0  0  0  0
   -5.8246  -15.5788   30.3511 H   0  0  0  0  0  0  0  0  0  0  0  0
   -6.1632  -15.2667   28.8863 H   0  0  0  0  0  0  0  0  0  0  0  0
  1  2  1  0
  2  3  1  0
  3  4  1  0
  4  5  1  0
  5  6  1  0
  6  7  1  0
  7  8  1  0
  8  9  1  0
  9 10  1  0
 10 11  1  0
 11 12  2  0
 11 13  1  0
 13 14  1  0
 14 15  1  0
 15 16  1  0
 16 17  1  0
 17 18  1  0
 18 19  1  0
 19 20  1  0
 20 21  1  0
 21 22  1  0
 16 23  1  0
 23 24  1  0
 24 13  1  0
 22 17  1  0
  1 25  1  0
  1 26  1  0
  1 27  1  0
  2 28  1  0
  2 29  1  0
  3 30  1  0
  3 31  1  0
  4 32  1  0
  4 33  1  0
  5 34  1  0
  5 35  1  0
  6 36  1  0
  6 37  1  0
  7 38  1  0
  7 39  1  0
  8 40  1  0
  8 41  1  0
  9 42  1  0
  9 43  1  0
 10 44  1  0
 10 45  1  0
 14 46  1  0
 14 47  1  0
 15 48  1  0
 15 49  1  0
 16 50  1  0
 18 51  1  0
 18 52  1  0
 19 53  1  0
 19 54  1  0
 20 55  1  0
 21 56  1  0
 21 57  1  0
 22 58  1  0
 22 59  1  0
 23 60  1  0
 23 61  1  0
 24 62  1  0
 24 63  1  0
M  END
>  <Energy>  (549) 
1929.8929116120332

>  <compound_id>  (549) 
60256

>  <target_id>  (549) 
1

>  <reference_id>  (549) 
46

>  <inspiration_ids>  (549) 
[46, 124]

>  <energy_score>  (549) 
1815.304684146614

>  <distance_score>  (549) 
11.58999924087943

>  <path>  (549) 
/opt/xchem-fragalysis-2/maxwin/BulkDock/SCRATCH/511021/C60256-P46/C60256-P46.minimised.mol

>  <scratch_subdir>  (549) 
/opt/xchem-fragalysis-2/maxwin/BulkDock/SCRATCH/511021/C60256-P46

>  <fragmenstein_runtime>  (549) 
52.12197732925415

>  <fragmenstein_outcome>  (549) 
too moved

>  <fragmenstein_mode>  (549) 
expansion

>  <fragmenstein_error>  (549) 


$$$$
C60256-P124
     RDKit          3D

 63 64  0  0  0  0  0  0  0  0999 V2000
    9.8372   -9.2710   21.2243 C   0  0  0  0  0  0  0  0  0  0  0  0
    8.5994   -9.8701   20.5747 C   0  0  0  0  0  0  0  0  0  0  0  0
    7.2634   -9.3859   21.1810 C   0  0  0  0  0  0  0  0  0  0  0  0
    6.1916  -10.5105   21.1332 C   0  0  0  0  0  0  0  0  0  0  0  0
    4.8794  -10.2785   21.9576 C   0  0  0  0  0  0  0  0  0  0  0  0
    4.0988  -11.6306   22.3169 C   0  0  0  0  0  0  0  0  0  0  0  0
    2.7670  -11.5260   23.2224 C   0  0  0  0  0  0  0  0  0  0  0  0
    2.2108  -12.8542   24.1960 C   0  0  0  0  0  0  0  0  0  0  0  0
    0.6623  -14.1270   24.0330 C   0  0  0  0  0  0  0  0  0  0  0  0
   -1.0706  -14.9853   24.5480 C   0  0  0  0  0  0  0  0  0  0  0  0
   -2.5005  -15.3469   25.8750 C   0  0  0  0  0  0  0  0  0  0  0  0
   -2.8829  -14.2824   26.3325 O   0  0  0  0  0  0  0  0  0  0  0  0
   -3.2446  -17.1876   26.1281 N   0  0  0  0  0  0  0  0  0  0  0  0
   -5.0322  -17.9197   27.0838 C   0  0  0  0  0  0  0  0  0  0  0  0
   -6.8022  -17.5306   28.2188 C   0  0  0  0  0  0  0  0  0  0  0  0
   -8.1481  -19.1454   27.9428 C   0  0  0  0  0  0  0  0  0  0  0  0
   -9.1351  -20.8959   27.4804 N   0  0  0  0  0  0  0  0  0  0  0  0
  -10.5767  -21.4936   28.3985 C   0  0  0  0  0  0  0  0  0  0  0  0
  -11.1419  -22.7959   29.0493 C   0  0  0  0  0  0  0  0  0  0  0  0
  -10.6212  -24.0583   28.5889 N   0  0  0  0  0  0  0  0  0  0  0  0
   -9.6674  -23.7775   27.5178 C   0  0  0  0  0  0  0  0  0  0  0  0
   -8.2940  -22.5441   27.6285 C   0  0  0  0  0  0  0  0  0  0  0  0
   -6.3854  -19.5828   26.8879 C   0  0  0  0  0  0  0  0  0  0  0  0
   -4.8164  -17.9800   27.3623 C   0  0  0  0  0  0  0  0  0  0  0  0
    9.9752   -8.2401   20.9327 H   0  0  0  0  0  0  0  0  0  0  0  0
    9.7730   -9.3193   22.3159 H   0  0  0  0  0  0  0  0  0  0  0  0
   10.7214   -9.8394   20.9264 H   0  0  0  0  0  0  0  0  0  0  0  0
    8.5944   -9.6929   19.4971 H   0  0  0  0  0  0  0  0  0  0  0  0
    8.6765  -10.9575   20.6990 H   0  0  0  0  0  0  0  0  0  0  0  0
    7.4120   -9.0941   22.2270 H   0  0  0  0  0  0  0  0  0  0  0  0
    6.8921   -8.5096   20.6419 H   0  0  0  0  0  0  0  0  0  0  0  0
    5.9220  -10.7138   20.0897 H   0  0  0  0  0  0  0  0  0  0  0  0
    6.6507  -11.4292   21.5203 H   0  0  0  0  0  0  0  0  0  0  0  0
    5.1322   -9.7836   22.9023 H   0  0  0  0  0  0  0  0  0  0  0  0
    4.2090   -9.6127   21.4032 H   0  0  0  0  0  0  0  0  0  0  0  0
    4.8001  -12.2783   22.8569 H   0  0  0  0  0  0  0  0  0  0  0  0
    3.8423  -12.1439   21.3841 H   0  0  0  0  0  0  0  0  0  0  0  0
    3.0466  -10.7688   23.9653 H   0  0  0  0  0  0  0  0  0  0  0  0
    1.9330  -11.1126   22.6476 H   0  0  0  0  0  0  0  0  0  0  0  0
    2.1937  -12.5060   25.2424 H   0  0  0  0  0  0  0  0  0  0  0  0
    3.1062  -13.4978   24.1337 H   0  0  0  0  0  0  0  0  0  0  0  0
    1.3095  -14.7089   23.4056 H   0  0  0  0  0  0  0  0  0  0  0  0
    0.7408  -13.9737   25.1559 H   0  0  0  0  0  0  0  0  0  0  0  0
   -1.5520  -15.1356   23.6182 H   0  0  0  0  0  0  0  0  0  0  0  0
   -1.2963  -13.9654   24.8936 H   0  0  0  0  0  0  0  0  0  0  0  0
   -5.5306  -18.7716   25.9141 H   0  0  0  0  0  0  0  0  0  0  0  0
   -4.9286  -19.4367   26.5700 H   0  0  0  0  0  0  0  0  0  0  0  0
   -6.1584  -17.5203   29.1454 H   0  0  0  0  0  0  0  0  0  0  0  0
   -7.4363  -16.6695   27.9328 H   0  0  0  0  0  0  0  0  0  0  0  0
   -8.8413  -18.4027   27.4882 H   0  0  0  0  0  0  0  0  0  0  0  0
  -11.2922  -21.5074   27.5606 H   0  0  0  0  0  0  0  0  0  0  0  0
  -10.7436  -20.7935   29.2147 H   0  0  0  0  0  0  0  0  0  0  0  0
  -12.2126  -22.7858   28.8662 H   0  0  0  0  0  0  0  0  0  0  0  0
  -11.0864  -22.7397   30.1439 H   0  0  0  0  0  0  0  0  0  0  0  0
  -10.1928  -24.5956   29.3403 H   0  0  0  0  0  0  0  0  0  0  0  0
   -9.3899  -24.7714   27.2200 H   0  0  0  0  0  0  0  0  0  0  0  0
  -10.3256  -23.5328   26.6770 H   0  0  0  0  0  0  0  0  0  0  0  0
   -7.6232  -22.6121   26.7530 H   0  0  0  0  0  0  0  0  0  0  0  0
   -7.5524  -22.7440   28.3614 H   0  0  0  0  0  0  0  0  0  0  0  0
   -6.5346  -19.9398   25.8423 H   0  0  0  0  0  0  0  0  0  0  0  0
   -6.1105  -20.6521   27.1527 H   0  0  0  0  0  0  0  0  0  0  0  0
   -4.3083  -16.7968   28.1718 H   0  0  0  0  0  0  0  0  0  0  0  0
   -4.9274  -18.9840   28.1250 H   0  0  0  0  0  0  0  0  0  0  0  0
  1  2  1  0
  2  3  1  0
  3  4  1  0
  4  5  1  0
  5  6  1  0
  6  7  1  0
  7  8  1  0
  8  9  1  0
  9 10  1  0
 10 11  1  0
 11 12  2  0
 11 13  1  0
 13 14  1  0
 14 15  1  0
 15 16  1  0
 16 17  1  0
 17 18  1  0
 18 19  1  0
 19 20  1  0
 20 21  1  0
 21 22  1  0
 16 23  1  0
 23 24  1  0
 24 13  1  0
 22 17  1  0
  1 25  1  0
  1 26  1  0
  1 27  1  0
  2 28  1  0
  2 29  1  0
  3 30  1  0
  3 31  1  0
  4 32  1  0
  4 33  1  0
  5 34  1  0
  5 35  1  0
  6 36  1  0
  6 37  1  0
  7 38  1  0
  7 39  1  0
  8 40  1  0
  8 41  1  0
  9 42  1  0
  9 43  1  0
 10 44  1  0
 10 45  1  0
 14 46  1  0
 14 47  1  0
 15 48  1  0
 15 49  1  0
 16 50  1  0
 18 51  1  0
 18 52  1  0
 19 53  1  0
 19 54  1  0
 20 55  1  0
 21 56  1  0
 21 57  1  0
 22 58  1  0
 22 59  1  0
 23 60  1  0
 23 61  1  0
 24 62  1  0
 24 63  1  0
M  END
>  <Energy>  (550) 
2603.1066500447159

>  <compound_id>  (550) 
60256

>  <target_id>  (550) 
1

>  <reference_id>  (550) 
124

>  <inspiration_ids>  (550) 
[46, 124]

>  <energy_score>  (550) 
2488.518422579302

>  <distance_score>  (550) 
10.996417096977305

>  <path>  (550) 
/opt/xchem-fragalysis-2/maxwin/BulkDock/SCRATCH/511021/C60256-P124/C60256-P124.minimised.mol

>  <scratch_subdir>  (550) 
/opt/xchem-fragalysis-2/maxwin/BulkDock/SCRATCH/511021/C60256-P124

>  <fragmenstein_runtime>  (550) 
67.94055318832397

>  <fragmenstein_outcome>  (550) 
too moved

>  <fragmenstein_mode>  (550) 
expansion

>  <fragmenstein_error>  (550) 


$$$$
C43214-P46
     RDKit          3D

 53 54  0  0  0  0  0  0  0  0999 V2000
   -0.3422  -16.2488   21.4533 C   0  0  0  0  0  0  0  0  0  0  0  0
    0.9667  -14.9280   22.1411 C   0  0  0  0  0  0  0  0  0  0  0  0
    3.0059  -14.2848   21.7414 C   0  0  0  0  0  0  0  0  0  0  0  0
    3.0055  -13.4016   23.4518 C   0  0  0  0  0  0  0  0  0  0  0  0
    4.4237  -12.8891   20.9873 C   0  0  0  0  0  0  0  0  0  0  0  0
    4.2976  -11.8451   21.5592 O   0  0  0  0  0  0  0  0  0  0  0  0
    5.8435  -13.0603   19.7886 N   0  0  0  0  0  0  0  0  0  0  0  0
    7.3709  -11.8427   19.3175 C   0  0  0  0  0  0  0  0  0  0  0  0
    8.4931  -10.1410   19.5578 C   0  0  0  0  0  0  0  0  0  0  0  0
    7.7667   -9.1900   19.5486 O   0  0  0  0  0  0  0  0  0  0  0  0
   10.2873   -9.7787   19.9803 N   0  0  0  0  0  0  0  0  0  0  0  0
   11.0992   -8.2416   20.5457 C   0  0  0  0  0  0  0  0  0  0  0  0
   12.2837   -6.6323   20.3811 C   0  0  0  0  0  0  0  0  0  0  0  0
   12.9616   -6.0418   18.5999 C   0  0  0  0  0  0  0  0  0  0  0  0
   12.2914   -7.5161   17.1128 C   0  0  0  0  0  0  0  0  0  0  0  0
   12.3152   -5.5924   16.3829 C   0  0  0  0  0  0  0  0  0  0  0  0
   13.8238   -4.8135   16.3479 C   0  0  0  0  0  0  0  0  0  0  0  0
   13.9725   -3.2865   16.1625 C   0  0  0  0  0  0  0  0  0  0  0  0
   12.7502   -2.5262   16.0928 N   0  0  0  0  0  0  0  0  0  0  0  0
   11.9247   -3.1262   15.0749 C   0  0  0  0  0  0  0  0  0  0  0  0
   11.3659   -4.4531   15.5907 C   0  0  0  0  0  0  0  0  0  0  0  0
   11.4881   -9.3738   18.3207 C   0  0  0  0  0  0  0  0  0  0  0  0
   -0.6265  -17.1979   21.8988 H   0  0  0  0  0  0  0  0  0  0  0  0
   -0.1129  -16.4845   20.3982 H   0  0  0  0  0  0  0  0  0  0  0  0
   -1.3463  -15.7841   21.5726 H   0  0  0  0  0  0  0  0  0  0  0  0
    1.4084  -14.9660   23.1722 H   0  0  0  0  0  0  0  0  0  0  0  0
    0.0903  -14.2455   22.4732 H   0  0  0  0  0  0  0  0  0  0  0  0
    3.4468  -15.0141   22.4322 H   0  0  0  0  0  0  0  0  0  0  0  0
    3.6065  -14.0031   24.1369 H   0  0  0  0  0  0  0  0  0  0  0  0
    2.1194  -13.1701   24.0241 H   0  0  0  0  0  0  0  0  0  0  0  0
    3.3159  -12.3957   23.2622 H   0  0  0  0  0  0  0  0  0  0  0  0
    5.7645  -13.9599   19.3274 H   0  0  0  0  0  0  0  0  0  0  0  0
    8.1583  -12.5978   19.4521 H   0  0  0  0  0  0  0  0  0  0  0  0
    7.1518  -11.7817   18.2424 H   0  0  0  0  0  0  0  0  0  0  0  0
   11.3799   -8.5696   21.5626 H   0  0  0  0  0  0  0  0  0  0  0  0
   10.1464   -7.8277   20.6564 H   0  0  0  0  0  0  0  0  0  0  0  0
   13.1465   -6.7963   21.0475 H   0  0  0  0  0  0  0  0  0  0  0  0
   11.7924   -5.6940   20.6356 H   0  0  0  0  0  0  0  0  0  0  0  0
   12.5287   -5.0253   18.6790 H   0  0  0  0  0  0  0  0  0  0  0  0
   14.0374   -5.8659   18.8869 H   0  0  0  0  0  0  0  0  0  0  0  0
   12.4698   -7.7390   16.0430 H   0  0  0  0  0  0  0  0  0  0  0  0
   11.8885   -5.0288   17.2012 H   0  0  0  0  0  0  0  0  0  0  0  0
   14.3782   -4.9192   17.2737 H   0  0  0  0  0  0  0  0  0  0  0  0
   14.4615   -5.2926   15.6147 H   0  0  0  0  0  0  0  0  0  0  0  0
   14.5895   -3.0861   15.2775 H   0  0  0  0  0  0  0  0  0  0  0  0
   14.5593   -2.8861   16.9998 H   0  0  0  0  0  0  0  0  0  0  0  0
   12.9659   -1.5653   15.8292 H   0  0  0  0  0  0  0  0  0  0  0  0
   12.4355   -3.2225   14.1144 H   0  0  0  0  0  0  0  0  0  0  0  0
   11.0791   -2.4536   14.8816 H   0  0  0  0  0  0  0  0  0  0  0  0
   10.7556   -4.7861   14.7601 H   0  0  0  0  0  0  0  0  0  0  0  0
   10.6871   -4.0657   16.3388 H   0  0  0  0  0  0  0  0  0  0  0  0
   12.1171  -10.2163   18.9329 H   0  0  0  0  0  0  0  0  0  0  0  0
   11.1443  -10.1672   17.4991 H   0  0  0  0  0  0  0  0  0  0  0  0
  1  2  1  0
  2  3  1  0
  3  4  1  0
  3  5  1  0
  5  6  2  0
  5  7  1  0
  7  8  1  0
  8  9  1  0
  9 10  2  0
  9 11  1  0
 11 12  1  0
 12 13  1  0
 13 14  1  0
 14 15  1  0
 15 16  1  0
 16 17  1  0
 17 18  1  0
 18 19  1  0
 19 20  1  0
 20 21  1  0
 15 22  1  0
 22 11  1  0
 21 16  1  0
  1 23  1  0
  1 24  1  0
  1 25  1  0
  2 26  1  0
  2 27  1  0
  3 28  1  0
  4 29  1  0
  4 30  1  0
  4 31  1  0
  7 32  1  0
  8 33  1  0
  8 34  1  0
 12 35  1  0
 12 36  1  0
 13 37  1  0
 13 38  1  0
 14 39  1  0
 14 40  1  0
 15 41  1  0
 16 42  1  0
 17 43  1  0
 17 44  1  0
 18 45  1  0
 18 46  1  0
 19 47  1  0
 20 48  1  0
 20 49  1  0
 21 50  1  0
 21 51  1  0
 22 52  1  0
 22 53  1  0
M  END
>  <Energy>  (551) 
1745.8296253457388

>  <compound_id>  (551) 
43214

>  <target_id>  (551) 
1

>  <reference_id>  (551) 
46

>  <inspiration_ids>  (551) 
[46, 124]

>  <energy_score>  (551) 
1669.7645141984253

>  <distance_score>  (551) 
12.516065840280959

>  <path>  (551) 
/opt/xchem-fragalysis-2/maxwin/BulkDock/SCRATCH/511021/C43214-P46/C43214-P46.minimised.mol

>  <scratch_subdir>  (551) 
/opt/xchem-fragalysis-2/maxwin/BulkDock/SCRATCH/511021/C43214-P46

>  <fragmenstein_runtime>  (551) 
31.631446599960327

>  <fragmenstein_outcome>  (551) 
too moved

>  <fragmenstein_mode>  (551) 
expansion

>  <fragmenstein_error>  (551) 


$$$$
C43214-P124
     RDKit          3D

 53 54  0  0  0  0  0  0  0  0999 V2000
   -3.6280  -14.7130   25.8026 C   0  0  0  0  0  0  0  0  0  0  0  0
   -2.0465  -14.4998   25.6541 C   0  0  0  0  0  0  0  0  0  0  0  0
   -0.6525  -13.1674   25.6236 C   0  0  0  0  0  0  0  0  0  0  0  0
   -2.5330  -12.3160   25.4954 C   0  0  0  0  0  0  0  0  0  0  0  0
    1.2261  -11.9178   25.3408 C   0  0  0  0  0  0  0  0  0  0  0  0
    1.4433  -11.2711   26.4289 O   0  0  0  0  0  0  0  0  0  0  0  0
    2.3731  -11.5152   23.6515 N   0  0  0  0  0  0  0  0  0  0  0  0
    3.9091   -9.9545   23.1739 C   0  0  0  0  0  0  0  0  0  0  0  0
    4.8993   -8.0243   22.3177 C   0  0  0  0  0  0  0  0  0  0  0  0
    4.7981   -7.1067   23.1537 O   0  0  0  0  0  0  0  0  0  0  0  0
    6.0523   -7.6239   20.5583 N   0  0  0  0  0  0  0  0  0  0  0  0
    6.9168   -5.8900   19.9069 C   0  0  0  0  0  0  0  0  0  0  0  0
    8.2410   -4.5576   20.5414 C   0  0  0  0  0  0  0  0  0  0  0  0
    9.9944   -5.4904   20.3074 C   0  0  0  0  0  0  0  0  0  0  0  0
    9.4673   -6.3147   19.2452 C   0  0  0  0  0  0  0  0  0  0  0  0
   10.8204   -5.2431   17.9621 C   0  0  0  0  0  0  0  0  0  0  0  0
   12.6065   -4.6044   18.4081 C   0  0  0  0  0  0  0  0  0  0  0  0
   13.6112   -4.1159   17.3561 C   0  0  0  0  0  0  0  0  0  0  0  0
   13.1342   -2.8910   16.7974 N   0  0  0  0  0  0  0  0  0  0  0  0
   11.8898   -3.1888   16.1508 C   0  0  0  0  0  0  0  0  0  0  0  0
   11.1671   -4.5236   16.4983 C   0  0  0  0  0  0  0  0  0  0  0  0
    8.0449   -7.8713   20.0696 C   0  0  0  0  0  0  0  0  0  0  0  0
   -4.1749  -14.5373   24.8731 H   0  0  0  0  0  0  0  0  0  0  0  0
   -4.0743  -14.1356   26.6174 H   0  0  0  0  0  0  0  0  0  0  0  0
   -3.8023  -15.7702   26.0442 H   0  0  0  0  0  0  0  0  0  0  0  0
   -1.9160  -14.8912   26.6832 H   0  0  0  0  0  0  0  0  0  0  0  0
   -1.8326  -15.1477   24.7897 H   0  0  0  0  0  0  0  0  0  0  0  0
   -0.6472  -12.1191   25.9546 H   0  0  0  0  0  0  0  0  0  0  0  0
   -3.2216  -12.1514   26.3659 H   0  0  0  0  0  0  0  0  0  0  0  0
   -3.2722  -12.7644   24.8515 H   0  0  0  0  0  0  0  0  0  0  0  0
   -2.6278  -11.2500   25.2603 H   0  0  0  0  0  0  0  0  0  0  0  0
    2.0212  -12.0382   22.8913 H   0  0  0  0  0  0  0  0  0  0  0  0
    2.9692   -9.2187   22.9929 H   0  0  0  0  0  0  0  0  0  0  0  0
    4.4213  -10.7186   22.4904 H   0  0  0  0  0  0  0  0  0  0  0  0
    6.2419   -5.2455   19.2699 H   0  0  0  0  0  0  0  0  0  0  0  0
    6.8761   -5.9452   21.0465 H   0  0  0  0  0  0  0  0  0  0  0  0
    8.6113   -3.8896   19.8700 H   0  0  0  0  0  0  0  0  0  0  0  0
    7.8959   -4.0155   21.4299 H   0  0  0  0  0  0  0  0  0  0  0  0
   10.3076   -6.4508   20.6616 H   0  0  0  0  0  0  0  0  0  0  0  0
   11.0104   -5.0539   20.5363 H   0  0  0  0  0  0  0  0  0  0  0  0
    9.1529   -5.3894   19.3607 H   0  0  0  0  0  0  0  0  0  0  0  0
   11.4461   -5.4062   18.9532 H   0  0  0  0  0  0  0  0  0  0  0  0
   12.5429   -3.7803   19.1260 H   0  0  0  0  0  0  0  0  0  0  0  0
   13.1298   -5.3215   19.0685 H   0  0  0  0  0  0  0  0  0  0  0  0
   13.7898   -4.8209   16.5468 H   0  0  0  0  0  0  0  0  0  0  0  0
   14.5747   -3.9316   17.8450 H   0  0  0  0  0  0  0  0  0  0  0  0
   13.8027   -2.5217   16.1213 H   0  0  0  0  0  0  0  0  0  0  0  0
   12.0798   -3.2138   15.0673 H   0  0  0  0  0  0  0  0  0  0  0  0
   11.2140   -2.3395   16.2722 H   0  0  0  0  0  0  0  0  0  0  0  0
   11.7011   -5.3315   16.0269 H   0  0  0  0  0  0  0  0  0  0  0  0
   10.3301   -4.1949   15.8958 H   0  0  0  0  0  0  0  0  0  0  0  0
    7.6982   -8.5528   19.2523 H   0  0  0  0  0  0  0  0  0  0  0  0
    8.6699   -8.6779   20.5268 H   0  0  0  0  0  0  0  0  0  0  0  0
  1  2  1  0
  2  3  1  0
  3  4  1  0
  3  5  1  0
  5  6  2  0
  5  7  1  0
  7  8  1  0
  8  9  1  0
  9 10  2  0
  9 11  1  0
 11 12  1  0
 12 13  1  0
 13 14  1  0
 14 15  1  0
 15 16  1  0
 16 17  1  0
 17 18  1  0
 18 19  1  0
 19 20  1  0
 20 21  1  0
 15 22  1  0
 22 11  1  0
 21 16  1  0
  1 23  1  0
  1 24  1  0
  1 25  1  0
  2 26  1  0
  2 27  1  0
  3 28  1  0
  4 29  1  0
  4 30  1  0
  4 31  1  0
  7 32  1  0
  8 33  1  0
  8 34  1  0
 12 35  1  0
 12 36  1  0
 13 37  1  0
 13 38  1  0
 14 39  1  0
 14 40  1  0
 15 41  1  0
 16 42  1  0
 17 43  1  0
 17 44  1  0
 18 45  1  0
 18 46  1  0
 19 47  1  0
 20 48  1  0
 20 49  1  0
 21 50  1  0
 21 51  1  0
 22 52  1  0
 22 53  1  0
M  END
>  <Energy>  (552) 
2539.8770291191854

>  <compound_id>  (552) 
43214

>  <target_id>  (552) 
1

>  <reference_id>  (552) 
124

>  <inspiration_ids>  (552) 
[46, 124]

>  <energy_score>  (552) 
2463.811917971886

>  <distance_score>  (552) 
11.510435119801322

>  <path>  (552) 
/opt/xchem-fragalysis-2/maxwin/BulkDock/SCRATCH/511021/C43214-P124/C43214-P124.minimised.mol

>  <scratch_subdir>  (552) 
/opt/xchem-fragalysis-2/maxwin/BulkDock/SCRATCH/511021/C43214-P124

>  <fragmenstein_runtime>  (552) 
27.355132579803467

>  <fragmenstein_outcome>  (552) 
too moved

>  <fragmenstein_mode>  (552) 
expansion

>  <fragmenstein_error>  (552) 


$$$$
C43215-P46
     RDKit          3D

 47 48  0  0  0  0  0  0  0  0999 V2000
   -2.7354  -18.0579   20.7196 N   0  0  0  0  0  0  0  0  0  0  0  0
   -1.4077  -18.6654   20.5848 C   0  0  0  0  0  0  0  0  0  0  0  0
   -0.6301  -18.3802   19.2502 C   0  0  0  0  0  0  0  0  0  0  0  0
    0.0073  -16.9603   19.1100 C   0  0  0  0  0  0  0  0  0  0  0  0
    1.0617  -16.6517   18.0816 N   0  0  0  0  0  0  0  0  0  0  0  0
    2.5335  -16.9011   18.0898 C   0  0  0  0  0  0  0  0  0  0  0  0
    3.2031  -17.4708   18.8738 O   0  0  0  0  0  0  0  0  0  0  0  0
    2.9198  -16.2956   16.7331 N   0  0  0  0  0  0  0  0  0  0  0  0
    4.2055  -16.3562   15.9825 C   0  0  0  0  0  0  0  0  0  0  0  0
    5.5816  -15.9043   16.5175 C   0  0  0  0  0  0  0  0  0  0  0  0
    5.7880  -14.4487   16.1575 C   0  0  0  0  0  0  0  0  0  0  0  0
    4.3950  -13.8618   15.9285 C   0  0  0  0  0  0  0  0  0  0  0  0
    4.4090  -12.2813   15.9603 C   0  0  0  0  0  0  0  0  0  0  0  0
    4.4602  -11.6327   14.5313 C   0  0  0  0  0  0  0  0  0  0  0  0
    5.5894  -10.6074   14.3072 C   0  0  0  0  0  0  0  0  0  0  0  0
    5.6927   -9.5797   15.3440 N   0  0  0  0  0  0  0  0  0  0  0  0
    5.3213  -10.0868   16.6631 C   0  0  0  0  0  0  0  0  0  0  0  0
    5.5085  -11.6015   16.7943 C   0  0  0  0  0  0  0  0  0  0  0  0
    3.3759  -14.7100   16.9212 C   0  0  0  0  0  0  0  0  0  0  0  0
   -3.1444  -18.3580   21.6040 H   0  0  0  0  0  0  0  0  0  0  0  0
   -3.3432  -18.4226   19.9870 H   0  0  0  0  0  0  0  0  0  0  0  0
   -1.5303  -19.7515   20.6708 H   0  0  0  0  0  0  0  0  0  0  0  0
   -0.7865  -18.3478   21.4288 H   0  0  0  0  0  0  0  0  0  0  0  0
   -1.2807  -18.5716   18.3886 H   0  0  0  0  0  0  0  0  0  0  0  0
    0.1862  -19.1110   19.1853 H   0  0  0  0  0  0  0  0  0  0  0  0
   -0.8018  -16.2454   18.9337 H   0  0  0  0  0  0  0  0  0  0  0  0
    0.4810  -16.7388   20.0666 H   0  0  0  0  0  0  0  0  0  0  0  0
    0.8061  -16.2005   17.2143 H   0  0  0  0  0  0  0  0  0  0  0  0
    4.0247  -16.1079   14.9267 H   0  0  0  0  0  0  0  0  0  0  0  0
    4.3306  -17.4496   15.9239 H   0  0  0  0  0  0  0  0  0  0  0  0
    5.6414  -16.0618   17.6012 H   0  0  0  0  0  0  0  0  0  0  0  0
    6.3805  -16.5022   16.0635 H   0  0  0  0  0  0  0  0  0  0  0  0
    6.3338  -13.9832   16.9821 H   0  0  0  0  0  0  0  0  0  0  0  0
    6.3943  -14.3433   15.2510 H   0  0  0  0  0  0  0  0  0  0  0  0
    4.0502  -14.1117   14.9169 H   0  0  0  0  0  0  0  0  0  0  0  0
    3.4372  -11.9962   16.3881 H   0  0  0  0  0  0  0  0  0  0  0  0
    3.4981  -11.1326   14.3557 H   0  0  0  0  0  0  0  0  0  0  0  0
    4.5432  -12.4025   13.7557 H   0  0  0  0  0  0  0  0  0  0  0  0
    5.4470  -10.1160   13.3384 H   0  0  0  0  0  0  0  0  0  0  0  0
    6.5415  -11.1493   14.2388 H   0  0  0  0  0  0  0  0  0  0  0  0
    6.6730   -9.2583   15.3361 H   0  0  0  0  0  0  0  0  0  0  0  0
    4.2680   -9.8219   16.8164 H   0  0  0  0  0  0  0  0  0  0  0  0
    5.8565   -9.5799   17.4639 H   0  0  0  0  0  0  0  0  0  0  0  0
    5.4505  -11.9345   17.8327 H   0  0  0  0  0  0  0  0  0  0  0  0
    6.5154  -11.8728   16.4538 H   0  0  0  0  0  0  0  0  0  0  0  0
    3.7199  -14.6031   17.9554 H   0  0  0  0  0  0  0  0  0  0  0  0
    2.4065  -14.1949   16.8814 H   0  0  0  0  0  0  0  0  0  0  0  0
  1  2  1  0
  2  3  1  0
  3  4  1  0
  4  5  1  0
  5  6  1  0
  6  7  2  0
  6  8  1  0
  8  9  1  0
  9 10  1  0
 10 11  1  0
 11 12  1  0
 12 13  1  0
 13 14  1  0
 14 15  1  0
 15 16  1  0
 16 17  1  0
 17 18  1  0
 12 19  1  0
 19  8  1  0
 18 13  1  0
  1 20  1  0
  1 21  1  0
  2 22  1  0
  2 23  1  0
  3 24  1  0
  3 25  1  0
  4 26  1  0
  4 27  1  0
  5 28  1  0
  9 29  1  0
  9 30  1  0
 10 31  1  0
 10 32  1  0
 11 33  1  0
 11 34  1  0
 12 35  1  0
 13 36  1  0
 14 37  1  0
 14 38  1  0
 15 39  1  0
 15 40  1  0
 16 41  1  0
 17 42  1  0
 17 43  1  0
 18 44  1  0
 18 45  1  0
 19 46  1  0
 19 47  1  0
M  END
>  <Energy>  (553) 
58.345271851672344

>  <compound_id>  (553) 
43215

>  <target_id>  (553) 
1

>  <reference_id>  (553) 
46

>  <inspiration_ids>  (553) 
[46, 124]

>  <energy_score>  (553) 
89.68090965547552

>  <distance_score>  (553) 
16.183066135677556

>  <path>  (553) 
/opt/xchem-fragalysis-2/maxwin/BulkDock/SCRATCH/511021/C43215-P46/C43215-P46.minimised.mol

>  <scratch_subdir>  (553) 
/opt/xchem-fragalysis-2/maxwin/BulkDock/SCRATCH/511021/C43215-P46

>  <fragmenstein_runtime>  (553) 
23.649636030197144

>  <fragmenstein_outcome>  (553) 
too moved

>  <fragmenstein_mode>  (553) 
expansion

>  <fragmenstein_error>  (553) 


$$$$
C43215-P124
     RDKit          3D

 47 48  0  0  0  0  0  0  0  0999 V2000
    3.5521  -14.1889   17.7117 N   0  0  0  0  0  0  0  0  0  0  0  0
    4.7702  -13.3374   17.8118 C   0  0  0  0  0  0  0  0  0  0  0  0
    5.0656  -12.4508   16.5486 C   0  0  0  0  0  0  0  0  0  0  0  0
    5.8422  -11.0327   16.6877 C   0  0  0  0  0  0  0  0  0  0  0  0
    7.2596  -10.7415   16.2637 N   0  0  0  0  0  0  0  0  0  0  0  0
    8.4853  -10.4902   17.0760 C   0  0  0  0  0  0  0  0  0  0  0  0
    8.6448  -10.5386   18.2432 O   0  0  0  0  0  0  0  0  0  0  0  0
    9.5927  -10.2419   15.9383 N   0  0  0  0  0  0  0  0  0  0  0  0
   11.0555  -10.1362   16.0474 C   0  0  0  0  0  0  0  0  0  0  0  0
   12.3581   -9.4109   15.7315 C   0  0  0  0  0  0  0  0  0  0  0  0
   12.4283   -7.5960   15.9709 C   0  0  0  0  0  0  0  0  0  0  0  0
   11.1280   -6.7960   15.8945 C   0  0  0  0  0  0  0  0  0  0  0  0
   11.6591   -5.0127   16.2312 C   0  0  0  0  0  0  0  0  0  0  0  0
   11.1676   -3.8636   15.2209 C   0  0  0  0  0  0  0  0  0  0  0  0
   11.9568   -2.5557   15.3098 C   0  0  0  0  0  0  0  0  0  0  0  0
   13.3778   -2.7443   15.5434 N   0  0  0  0  0  0  0  0  0  0  0  0
   13.7049   -3.5007   16.7525 C   0  0  0  0  0  0  0  0  0  0  0  0
   12.5074   -4.2990   17.3295 C   0  0  0  0  0  0  0  0  0  0  0  0
    9.7550   -8.3740   15.5515 C   0  0  0  0  0  0  0  0  0  0  0  0
    3.5147  -14.6890   18.6145 H   0  0  0  0  0  0  0  0  0  0  0  0
    3.7350  -14.9140   17.0203 H   0  0  0  0  0  0  0  0  0  0  0  0
    5.6335  -13.9981   17.9597 H   0  0  0  0  0  0  0  0  0  0  0  0
    4.7127  -12.7383   18.7153 H   0  0  0  0  0  0  0  0  0  0  0  0
    5.5830  -13.0546   15.7938 H   0  0  0  0  0  0  0  0  0  0  0  0
    4.0882  -12.1894   16.1198 H   0  0  0  0  0  0  0  0  0  0  0  0
    5.2456  -10.2861   16.1507 H   0  0  0  0  0  0  0  0  0  0  0  0
    5.8373  -10.7611   17.7439 H   0  0  0  0  0  0  0  0  0  0  0  0
    7.4563  -10.5290   15.2894 H   0  0  0  0  0  0  0  0  0  0  0  0
   11.2012  -10.5077   17.0729 H   0  0  0  0  0  0  0  0  0  0  0  0
   11.2575  -11.0693   15.4900 H   0  0  0  0  0  0  0  0  0  0  0  0
   13.1006  -10.1209   16.1325 H   0  0  0  0  0  0  0  0  0  0  0  0
   12.9379   -9.6654   14.8315 H   0  0  0  0  0  0  0  0  0  0  0  0
   12.5096   -7.1741   16.9091 H   0  0  0  0  0  0  0  0  0  0  0  0
   13.3101   -7.1969   15.5071 H   0  0  0  0  0  0  0  0  0  0  0  0
   10.9069   -6.4551   14.9538 H   0  0  0  0  0  0  0  0  0  0  0  0
   12.6487   -5.2386   15.8482 H   0  0  0  0  0  0  0  0  0  0  0  0
   10.1285   -3.6112   15.3832 H   0  0  0  0  0  0  0  0  0  0  0  0
   11.1903   -4.1589   14.1706 H   0  0  0  0  0  0  0  0  0  0  0  0
   11.8185   -1.9922   14.3798 H   0  0  0  0  0  0  0  0  0  0  0  0
   11.5179   -1.9499   16.0967 H   0  0  0  0  0  0  0  0  0  0  0  0
   13.8820   -1.8600   15.5169 H   0  0  0  0  0  0  0  0  0  0  0  0
   14.0625   -2.8072   17.5232 H   0  0  0  0  0  0  0  0  0  0  0  0
   14.5407   -4.1699   16.5271 H   0  0  0  0  0  0  0  0  0  0  0  0
   11.9335   -3.4879   17.7154 H   0  0  0  0  0  0  0  0  0  0  0  0
   12.8153   -4.8888   18.1868 H   0  0  0  0  0  0  0  0  0  0  0  0
   10.0440   -8.9519   14.7338 H   0  0  0  0  0  0  0  0  0  0  0  0
    8.9979   -7.7299   15.1094 H   0  0  0  0  0  0  0  0  0  0  0  0
  1  2  1  0
  2  3  1  0
  3  4  1  0
  4  5  1  0
  5  6  1  0
  6  7  2  0
  6  8  1  0
  8  9  1  0
  9 10  1  0
 10 11  1  0
 11 12  1  0
 12 13  1  0
 13 14  1  0
 14 15  1  0
 15 16  1  0
 16 17  1  0
 17 18  1  0
 12 19  1  0
 19  8  1  0
 18 13  1  0
  1 20  1  0
  1 21  1  0
  2 22  1  0
  2 23  1  0
  3 24  1  0
  3 25  1  0
  4 26  1  0
  4 27  1  0
  5 28  1  0
  9 29  1  0
  9 30  1  0
 10 31  1  0
 10 32  1  0
 11 33  1  0
 11 34  1  0
 12 35  1  0
 13 36  1  0
 14 37  1  0
 14 38  1  0
 15 39  1  0
 15 40  1  0
 16 41  1  0
 17 42  1  0
 17 43  1  0
 18 44  1  0
 18 45  1  0
 19 46  1  0
 19 47  1  0
M  END
>  <Energy>  (554) 
435.80861639546424

>  <compound_id>  (554) 
43215

>  <target_id>  (554) 
1

>  <reference_id>  (554) 
124

>  <inspiration_ids>  (554) 
[46, 124]

>  <energy_score>  (554) 
467.1442541992624

>  <distance_score>  (554) 
13.778640665493171

>  <path>  (554) 
/opt/xchem-fragalysis-2/maxwin/BulkDock/SCRATCH/511021/C43215-P124/C43215-P124.minimised.mol

>  <scratch_subdir>  (554) 
/opt/xchem-fragalysis-2/maxwin/BulkDock/SCRATCH/511021/C43215-P124

>  <fragmenstein_runtime>  (554) 
28.157922506332397

>  <fragmenstein_outcome>  (554) 
too moved

>  <fragmenstein_mode>  (554) 
expansion

>  <fragmenstein_error>  (554) 


$$$$
C60259-P46
     RDKit          3D

 52 53  0  0  0  0  0  0  0  0999 V2000
   13.3316    0.3021   16.7527 C   0  0  0  0  0  0  0  0  0  0  0  0
   12.1437   -0.4957   16.7823 O   0  0  0  0  0  0  0  0  0  0  0  0
   11.1744   -0.1144   15.8970 C   0  0  0  0  0  0  0  0  0  0  0  0
   11.3078    0.8540   15.2032 O   0  0  0  0  0  0  0  0  0  0  0  0
   10.1424   -1.0973   15.9289 N   0  0  0  0  0  0  0  0  0  0  0  0
   10.4857   -2.2182   15.0273 C   0  0  0  0  0  0  0  0  0  0  0  0
    9.9902   -3.6492   15.2732 C   0  0  0  0  0  0  0  0  0  0  0  0
    8.1085   -3.8149   15.4966 C   0  0  0  0  0  0  0  0  0  0  0  0
    7.0825   -5.6272   16.0367 C   0  0  0  0  0  0  0  0  0  0  0  0
    5.9532   -7.0934   15.4460 C   0  0  0  0  0  0  0  0  0  0  0  0
    5.7809   -5.8643   17.2633 N   0  0  0  0  0  0  0  0  0  0  0  0
    5.6405   -6.8531   18.3593 C   0  0  0  0  0  0  0  0  0  0  0  0
    6.4002   -7.6922   18.7562 O   0  0  0  0  0  0  0  0  0  0  0  0
    4.1715   -6.7929   18.9930 C   0  0  0  0  0  0  0  0  0  0  0  0
    3.5863   -7.7444   19.7913 C   0  0  0  0  0  0  0  0  0  0  0  0
    2.0570   -7.8974   20.2680 C   0  0  0  0  0  0  0  0  0  0  0  0
    1.7507   -7.3630   21.6828 C   0  0  0  0  0  0  0  0  0  0  0  0
    0.2829   -7.5694   22.1332 C   0  0  0  0  0  0  0  0  0  0  0  0
   -0.5548   -8.4873   21.2417 C   0  0  0  0  0  0  0  0  0  0  0  0
    0.1579   -9.6462   20.7413 N   0  0  0  0  0  0  0  0  0  0  0  0
    1.5071   -9.3700   20.2034 C   0  0  0  0  0  0  0  0  0  0  0  0
    7.6566   -2.2308   15.2884 C   0  0  0  0  0  0  0  0  0  0  0  0
    8.8350   -1.1733   15.1801 C   0  0  0  0  0  0  0  0  0  0  0  0
   13.1051    1.3423   17.0065 H   0  0  0  0  0  0  0  0  0  0  0  0
   14.0215   -0.0944   17.5026 H   0  0  0  0  0  0  0  0  0  0  0  0
   13.8104    0.2355   15.7709 H   0  0  0  0  0  0  0  0  0  0  0  0
   11.5361   -2.3893   15.3426 H   0  0  0  0  0  0  0  0  0  0  0  0
   10.8035   -1.9191   14.0339 H   0  0  0  0  0  0  0  0  0  0  0  0
   10.5560   -3.9655   16.1694 H   0  0  0  0  0  0  0  0  0  0  0  0
   10.4182   -4.3028   14.5165 H   0  0  0  0  0  0  0  0  0  0  0  0
    8.2019   -3.6188   14.4135 H   0  0  0  0  0  0  0  0  0  0  0  0
    7.8040   -6.2161   15.5356 H   0  0  0  0  0  0  0  0  0  0  0  0
    6.2650   -7.6408   14.5481 H   0  0  0  0  0  0  0  0  0  0  0  0
    4.8580   -6.9406   15.4482 H   0  0  0  0  0  0  0  0  0  0  0  0
    5.9118   -7.9044   16.1893 H   0  0  0  0  0  0  0  0  0  0  0  0
    4.9057   -5.3651   17.1512 H   0  0  0  0  0  0  0  0  0  0  0  0
    3.5669   -5.9615   18.6494 H   0  0  0  0  0  0  0  0  0  0  0  0
    4.2155   -8.5792   20.1076 H   0  0  0  0  0  0  0  0  0  0  0  0
    1.4670   -7.3004   19.5577 H   0  0  0  0  0  0  0  0  0  0  0  0
    1.9803   -6.2900   21.7189 H   0  0  0  0  0  0  0  0  0  0  0  0
    2.4361   -7.8209   22.4031 H   0  0  0  0  0  0  0  0  0  0  0  0
    0.2690   -7.8991   23.1729 H   0  0  0  0  0  0  0  0  0  0  0  0
   -0.2078   -6.5871   22.1494 H   0  0  0  0  0  0  0  0  0  0  0  0
   -1.4474   -8.8114   21.7878 H   0  0  0  0  0  0  0  0  0  0  0  0
   -0.9159   -7.9055   20.3841 H   0  0  0  0  0  0  0  0  0  0  0  0
   -0.4003  -10.1473   20.0555 H   0  0  0  0  0  0  0  0  0  0  0  0
    2.2137  -10.0321   20.7165 H   0  0  0  0  0  0  0  0  0  0  0  0
    1.5213   -9.6819   19.1512 H   0  0  0  0  0  0  0  0  0  0  0  0
    6.9504   -1.7671   15.9516 H   0  0  0  0  0  0  0  0  0  0  0  0
    7.0849   -2.1596   14.3446 H   0  0  0  0  0  0  0  0  0  0  0  0
    8.3594   -0.3211   15.6997 H   0  0  0  0  0  0  0  0  0  0  0  0
    8.8958   -0.6756   14.2083 H   0  0  0  0  0  0  0  0  0  0  0  0
  1  2  1  0
  2  3  1  0
  3  4  2  0
  3  5  1  0
  5  6  1  0
  6  7  1  0
  7  8  1  0
  8  9  1  0
  9 10  1  0
  9 11  1  0
 11 12  1  0
 12 13  2  0
 12 14  1  0
 14 15  2  3
 15 16  1  0
 16 17  1  0
 17 18  1  0
 18 19  1  0
 19 20  1  0
 20 21  1  0
  8 22  1  0
 22 23  1  0
 23  5  1  0
 21 16  1  0
  1 24  1  0
  1 25  1  0
  1 26  1  0
  6 27  1  0
  6 28  1  0
  7 29  1  0
  7 30  1  0
  8 31  1  0
  9 32  1  0
 10 33  1  0
 10 34  1  0
 10 35  1  0
 11 36  1  0
 14 37  1  0
 15 38  1  0
 16 39  1  0
 17 40  1  0
 17 41  1  0
 18 42  1  0
 18 43  1  0
 19 44  1  0
 19 45  1  0
 20 46  1  0
 21 47  1  0
 21 48  1  0
 22 49  1  0
 22 50  1  0
 23 51  1  0
 23 52  1  0
M  END
>  <Energy>  (555) 
437.82539682532337

>  <compound_id>  (555) 
60259

>  <target_id>  (555) 
1

>  <reference_id>  (555) 
46

>  <inspiration_ids>  (555) 
[46, 124]

>  <energy_score>  (555) 
414.6211119814508

>  <distance_score>  (555) 
13.348387523709393

>  <path>  (555) 
/opt/xchem-fragalysis-2/maxwin/BulkDock/SCRATCH/511021/C60259-P46/C60259-P46.minimised.mol

>  <scratch_subdir>  (555) 
/opt/xchem-fragalysis-2/maxwin/BulkDock/SCRATCH/511021/C60259-P46

>  <fragmenstein_runtime>  (555) 
37.60947942733765

>  <fragmenstein_outcome>  (555) 
too moved

>  <fragmenstein_mode>  (555) 
expansion

>  <fragmenstein_error>  (555) 


$$$$
C60259-P124
     RDKit          3D

 52 53  0  0  0  0  0  0  0  0999 V2000
    8.5575   -5.4363   21.5497 C   0  0  0  0  0  0  0  0  0  0  0  0
    7.2631   -5.9913   21.3164 O   0  0  0  0  0  0  0  0  0  0  0  0
    6.2432   -5.3134   21.9283 C   0  0  0  0  0  0  0  0  0  0  0  0
    6.3803   -4.2105   22.3798 O   0  0  0  0  0  0  0  0  0  0  0  0
    5.1429   -6.1937   21.9742 N   0  0  0  0  0  0  0  0  0  0  0  0
    4.2460   -5.9772   20.7654 C   0  0  0  0  0  0  0  0  0  0  0  0
    3.4670   -7.2299   20.3183 C   0  0  0  0  0  0  0  0  0  0  0  0
    2.4770   -7.7698   21.3798 C   0  0  0  0  0  0  0  0  0  0  0  0
    0.9600   -7.3472   21.2917 C   0  0  0  0  0  0  0  0  0  0  0  0
    0.4599   -7.3182   19.8402 C   0  0  0  0  0  0  0  0  0  0  0  0
   -0.0410   -8.1548   22.0665 N   0  0  0  0  0  0  0  0  0  0  0  0
   -1.3978   -7.8636   22.4422 C   0  0  0  0  0  0  0  0  0  0  0  0
   -2.0510   -6.8660   22.3012 O   0  0  0  0  0  0  0  0  0  0  0  0
   -2.2902   -9.0487   23.0559 C   0  0  0  0  0  0  0  0  0  0  0  0
   -2.6107   -9.9528   24.2032 C   0  0  0  0  0  0  0  0  0  0  0  0
   -2.4715  -11.0869   26.0314 C   0  0  0  0  0  0  0  0  0  0  0  0
   -3.7822  -12.0441   27.1641 C   0  0  0  0  0  0  0  0  0  0  0  0
   -3.3627  -12.0463   29.0354 C   0  0  0  0  0  0  0  0  0  0  0  0
   -2.1365  -11.0034   29.8354 C   0  0  0  0  0  0  0  0  0  0  0  0
   -1.0153  -10.2407   29.0347 N   0  0  0  0  0  0  0  0  0  0  0  0
   -1.2176  -10.3592   27.4839 C   0  0  0  0  0  0  0  0  0  0  0  0
    3.0788   -7.4054   22.7359 C   0  0  0  0  0  0  0  0  0  0  0  0
    3.8389   -6.0870   22.6898 C   0  0  0  0  0  0  0  0  0  0  0  0
    8.6467   -4.4629   21.0689 H   0  0  0  0  0  0  0  0  0  0  0  0
    8.7554   -5.3550   22.6233 H   0  0  0  0  0  0  0  0  0  0  0  0
    9.2983   -6.1109   21.1152 H   0  0  0  0  0  0  0  0  0  0  0  0
    4.9562   -5.8061   19.9383 H   0  0  0  0  0  0  0  0  0  0  0  0
    3.6739   -5.0335   20.7343 H   0  0  0  0  0  0  0  0  0  0  0  0
    4.2093   -8.0208   20.1368 H   0  0  0  0  0  0  0  0  0  0  0  0
    2.9950   -7.0519   19.3499 H   0  0  0  0  0  0  0  0  0  0  0  0
    2.4788   -8.8610   21.2671 H   0  0  0  0  0  0  0  0  0  0  0  0
    0.8580   -6.3251   21.6783 H   0  0  0  0  0  0  0  0  0  0  0  0
   -0.6138   -7.1046   19.7917 H   0  0  0  0  0  0  0  0  0  0  0  0
    0.9563   -6.5367   19.2583 H   0  0  0  0  0  0  0  0  0  0  0  0
    0.6235   -8.2842   19.3504 H   0  0  0  0  0  0  0  0  0  0  0  0
    0.1561   -9.1349   22.2685 H   0  0  0  0  0  0  0  0  0  0  0  0
   -3.1008   -9.0731   22.3025 H   0  0  0  0  0  0  0  0  0  0  0  0
   -3.5506  -10.4019   23.7246 H   0  0  0  0  0  0  0  0  0  0  0  0
   -2.2024  -12.0521   25.5860 H   0  0  0  0  0  0  0  0  0  0  0  0
   -3.4707  -12.9449   26.6521 H   0  0  0  0  0  0  0  0  0  0  0  0
   -4.8710  -12.0175   27.1504 H   0  0  0  0  0  0  0  0  0  0  0  0
   -4.3156  -12.0653   29.5841 H   0  0  0  0  0  0  0  0  0  0  0  0
   -3.0448  -13.0346   29.2971 H   0  0  0  0  0  0  0  0  0  0  0  0
   -2.5669  -10.3692   30.6218 H   0  0  0  0  0  0  0  0  0  0  0  0
   -1.4963  -11.5311   30.5207 H   0  0  0  0  0  0  0  0  0  0  0  0
   -0.1595  -10.7653   29.2377 H   0  0  0  0  0  0  0  0  0  0  0  0
   -2.0874  -10.5628   27.9541 H   0  0  0  0  0  0  0  0  0  0  0  0
   -0.8010   -9.3825   27.2057 H   0  0  0  0  0  0  0  0  0  0  0  0
    2.3048   -7.3414   23.5076 H   0  0  0  0  0  0  0  0  0  0  0  0
    3.7749   -8.1978   23.0402 H   0  0  0  0  0  0  0  0  0  0  0  0
    3.2291   -5.1778   22.5519 H   0  0  0  0  0  0  0  0  0  0  0  0
    4.1767   -5.9287   23.7272 H   0  0  0  0  0  0  0  0  0  0  0  0
  1  2  1  0
  2  3  1  0
  3  4  2  0
  3  5  1  0
  5  6  1  0
  6  7  1  0
  7  8  1  0
  8  9  1  0
  9 10  1  0
  9 11  1  0
 11 12  1  0
 12 13  2  0
 12 14  1  0
 14 15  2  3
 15 16  1  0
 16 17  1  0
 17 18  1  0
 18 19  1  0
 19 20  1  0
 20 21  1  0
  8 22  1  0
 22 23  1  0
 23  5  1  0
 21 16  1  0
  1 24  1  0
  1 25  1  0
  1 26  1  0
  6 27  1  0
  6 28  1  0
  7 29  1  0
  7 30  1  0
  8 31  1  0
  9 32  1  0
 10 33  1  0
 10 34  1  0
 10 35  1  0
 11 36  1  0
 14 37  1  0
 15 38  1  0
 16 39  1  0
 17 40  1  0
 17 41  1  0
 18 42  1  0
 18 43  1  0
 19 44  1  0
 19 45  1  0
 20 46  1  0
 21 47  1  0
 21 48  1  0
 22 49  1  0
 22 50  1  0
 23 51  1  0
 23 52  1  0
M  END
>  <Energy>  (556) 
507.41682096000017

>  <compound_id>  (556) 
60259

>  <target_id>  (556) 
1

>  <reference_id>  (556) 
124

>  <inspiration_ids>  (556) 
[46, 124]

>  <energy_score>  (556) 
484.2125361161245

>  <distance_score>  (556) 
14.456571507283417

>  <path>  (556) 
/opt/xchem-fragalysis-2/maxwin/BulkDock/SCRATCH/511021/C60259-P124/C60259-P124.minimised.mol

>  <scratch_subdir>  (556) 
/opt/xchem-fragalysis-2/maxwin/BulkDock/SCRATCH/511021/C60259-P124

>  <fragmenstein_runtime>  (556) 
39.95974612236023

>  <fragmenstein_outcome>  (556) 
too moved

>  <fragmenstein_mode>  (556) 
expansion

>  <fragmenstein_error>  (556) 


$$$$
C62205-P111
     RDKit          3D

 45 46  0  0  0  0  0  0  0  0999 V2000
   -7.6331   -3.4978    4.7483 C   0  0  0  0  0  0  0  0  0  0  0  0
   -7.2759   -3.3564    6.4779 S   0  0  0  0  0  0  0  0  0  0  0  0
   -5.8674   -3.0401    6.5954 O   0  0  0  0  0  0  0  0  0  0  0  0
   -7.8187   -4.5201    7.1470 O   0  0  0  0  0  0  0  0  0  0  0  0
   -8.2509   -1.9593    6.9707 C   0  0  0  0  0  0  0  0  0  0  0  0
   -7.7065   -0.6666    6.3996 C   0  0  0  0  0  0  0  0  0  0  0  0
   -7.1883    0.1598    7.4433 O   0  0  0  0  0  0  0  0  0  0  0  0
   -5.9504   -0.1468    7.8551 C   0  0  0  0  0  0  0  0  0  0  0  0
   -5.6619   -0.2334    9.1452 C   0  0  0  0  0  0  0  0  0  0  0  0
   -4.2606   -0.3179    9.6676 C   0  0  0  0  0  0  0  0  0  0  0  0
   -3.0525   -0.5330    9.0357 C   0  0  0  0  0  0  0  0  0  0  0  0
   -1.4547   -0.9967    9.1617 N   0  0  0  0  0  0  0  0  0  0  0  0
   -0.2030   -1.0697   10.6989 C   0  0  0  0  0  0  0  0  0  0  0  0
   -0.5534   -0.6334   11.8261 O   0  0  0  0  0  0  0  0  0  0  0  0
    1.3608   -1.8145   10.2368 N   0  0  0  0  0  0  0  0  0  0  0  0
    2.8526   -2.2821   11.2918 O   0  0  0  0  0  0  0  0  0  0  0  0
    4.2690   -3.1940   11.9856 C   0  0  0  0  0  0  0  0  0  0  0  0
    5.9941   -2.2673   12.4854 C   0  0  0  0  0  0  0  0  0  0  0  0
    6.4368   -2.5399   13.9408 C   0  0  0  0  0  0  0  0  0  0  0  0
    5.2854   -3.4012   14.4682 C   0  0  0  0  0  0  0  0  0  0  0  0
    4.0689   -3.8608   13.3767 C   0  0  0  0  0  0  0  0  0  0  0  0
   -3.5001   -0.6431    7.7284 C   0  0  0  0  0  0  0  0  0  0  0  0
   -4.8212   -0.2730    7.1522 C   0  0  0  0  0  0  0  0  0  0  0  0
   -8.6782   -3.7877    4.6282 H   0  0  0  0  0  0  0  0  0  0  0  0
   -7.4548   -2.5448    4.2510 H   0  0  0  0  0  0  0  0  0  0  0  0
   -6.9653   -4.2503    4.3264 H   0  0  0  0  0  0  0  0  0  0  0  0
   -9.2631   -2.1561    6.6014 H   0  0  0  0  0  0  0  0  0  0  0  0
   -8.2828   -1.9564    8.0644 H   0  0  0  0  0  0  0  0  0  0  0  0
   -8.5471   -0.1005    5.9813 H   0  0  0  0  0  0  0  0  0  0  0  0
   -6.9915   -0.7832    5.5799 H   0  0  0  0  0  0  0  0  0  0  0  0
   -6.5115   -0.1889    9.8299 H   0  0  0  0  0  0  0  0  0  0  0  0
   -4.2956   -0.3278   10.7483 H   0  0  0  0  0  0  0  0  0  0  0  0
   -0.9864   -1.3039    8.3519 H   0  0  0  0  0  0  0  0  0  0  0  0
    1.3714   -1.9882    9.2418 H   0  0  0  0  0  0  0  0  0  0  0  0
    4.3663   -4.0619   11.3303 H   0  0  0  0  0  0  0  0  0  0  0  0
    6.8471   -2.3110   11.7885 H   0  0  0  0  0  0  0  0  0  0  0  0
    5.9321   -1.1591   12.3952 H   0  0  0  0  0  0  0  0  0  0  0  0
    7.4521   -2.9060   14.0705 H   0  0  0  0  0  0  0  0  0  0  0  0
    6.4966   -1.5759   14.4755 H   0  0  0  0  0  0  0  0  0  0  0  0
    5.0434   -2.6468   15.1929 H   0  0  0  0  0  0  0  0  0  0  0  0
    5.4151   -4.1898   15.2053 H   0  0  0  0  0  0  0  0  0  0  0  0
    3.0401   -3.7344   13.7179 H   0  0  0  0  0  0  0  0  0  0  0  0
    4.1186   -4.9445   13.2256 H   0  0  0  0  0  0  0  0  0  0  0  0
   -2.7508   -0.8597    7.0070 H   0  0  0  0  0  0  0  0  0  0  0  0
   -4.9113    0.0325    6.1210 H   0  0  0  0  0  0  0  0  0  0  0  0
  1  2  1  0
  2  3  2  0
  2  4  2  0
  2  5  1  0
  5  6  1  0
  6  7  1  0
  7  8  1  0
  8  9  2  0
  9 10  1  0
 10 11  2  0
 11 12  1  0
 12 13  1  0
 13 14  2  0
 13 15  1  0
 15 16  1  0
 16 17  1  0
 17 18  1  0
 18 19  1  0
 19 20  1  0
 20 21  1  0
 11 22  1  0
 22 23  2  0
 23  8  1  0
 21 17  1  0
  1 24  1  0
  1 25  1  0
  1 26  1  0
  5 27  1  0
  5 28  1  0
  6 29  1  0
  6 30  1  0
  9 31  1  0
 10 32  1  0
 12 33  1  0
 15 34  1  0
 17 35  1  0
 18 36  1  0
 18 37  1  0
 19 38  1  0
 19 39  1  0
 20 40  1  0
 20 41  1  0
 21 42  1  0
 21 43  1  0
 22 44  1  0
 23 45  1  0
M  END
>  <Energy>  (557) 
554.56620697341441

>  <compound_id>  (557) 
62205

>  <target_id>  (557) 
1

>  <reference_id>  (557) 
111

>  <inspiration_ids>  (557) 
[111, 95]

>  <energy_score>  (557) 
518.9195938865166

>  <distance_score>  (557) 
6.668919703017883

>  <path>  (557) 
/opt/xchem-fragalysis-2/maxwin/BulkDock/SCRATCH/511021/C62205-P111/C62205-P111.minimised.mol

>  <scratch_subdir>  (557) 
/opt/xchem-fragalysis-2/maxwin/BulkDock/SCRATCH/511021/C62205-P111

>  <fragmenstein_runtime>  (557) 
88.43108296394348

>  <fragmenstein_outcome>  (557) 
too moved

>  <fragmenstein_mode>  (557) 
expansion

>  <fragmenstein_error>  (557) 


$$$$
C62205-P95
     RDKit          3D

 45 46  0  0  0  0  0  0  0  0999 V2000
   -6.3061    0.5931    4.5326 C   0  0  0  0  0  0  0  0  0  0  0  0
   -7.1230   -0.9317    4.1358 S   0  0  0  0  0  0  0  0  0  0  0  0
   -7.8397   -0.6936    2.8970 O   0  0  0  0  0  0  0  0  0  0  0  0
   -6.1307   -1.9876    4.1929 O   0  0  0  0  0  0  0  0  0  0  0  0
   -8.3554   -1.1844    5.4074 C   0  0  0  0  0  0  0  0  0  0  0  0
   -7.8292   -0.9313    6.8010 C   0  0  0  0  0  0  0  0  0  0  0  0
   -6.8005   -1.8733    7.0530 O   0  0  0  0  0  0  0  0  0  0  0  0
   -5.6269   -1.3565    7.4949 C   0  0  0  0  0  0  0  0  0  0  0  0
   -4.4816   -1.8364    6.9228 C   0  0  0  0  0  0  0  0  0  0  0  0
   -3.2480   -1.5633    7.5298 C   0  0  0  0  0  0  0  0  0  0  0  0
   -3.0319   -0.9347    8.7877 C   0  0  0  0  0  0  0  0  0  0  0  0
   -1.5370   -1.2253    9.1437 N   0  0  0  0  0  0  0  0  0  0  0  0
   -0.5599   -1.1516   10.8265 C   0  0  0  0  0  0  0  0  0  0  0  0
   -0.9502   -0.9382   11.9563 O   0  0  0  0  0  0  0  0  0  0  0  0
    1.0404   -1.4771   10.2295 N   0  0  0  0  0  0  0  0  0  0  0  0
    2.4907   -1.6879   11.0526 O   0  0  0  0  0  0  0  0  0  0  0  0
    3.9943   -2.7326   11.5653 C   0  0  0  0  0  0  0  0  0  0  0  0
    5.7808   -1.9853   12.1053 C   0  0  0  0  0  0  0  0  0  0  0  0
    6.1905   -2.2555   13.6555 C   0  0  0  0  0  0  0  0  0  0  0  0
    5.0798   -3.2046   14.1425 C   0  0  0  0  0  0  0  0  0  0  0  0
    3.9178   -3.6291   12.9555 C   0  0  0  0  0  0  0  0  0  0  0  0
   -4.2142   -0.3723    9.2197 C   0  0  0  0  0  0  0  0  0  0  0  0
   -5.4894   -0.5324    8.5880 C   0  0  0  0  0  0  0  0  0  0  0  0
   -5.6429    0.8445    3.7015 H   0  0  0  0  0  0  0  0  0  0  0  0
   -7.0592    1.3746    4.6497 H   0  0  0  0  0  0  0  0  0  0  0  0
   -5.7183    0.4822    5.4389 H   0  0  0  0  0  0  0  0  0  0  0  0
   -8.6973   -2.2187    5.2933 H   0  0  0  0  0  0  0  0  0  0  0  0
   -9.1890   -0.5104    5.1877 H   0  0  0  0  0  0  0  0  0  0  0  0
   -8.6274   -1.1034    7.5315 H   0  0  0  0  0  0  0  0  0  0  0  0
   -7.5051    0.1101    6.9103 H   0  0  0  0  0  0  0  0  0  0  0  0
   -4.5228   -2.4759    6.0456 H   0  0  0  0  0  0  0  0  0  0  0  0
   -2.4081   -1.9710    6.9972 H   0  0  0  0  0  0  0  0  0  0  0  0
   -0.9528   -1.3745    8.4058 H   0  0  0  0  0  0  0  0  0  0  0  0
    1.0310   -1.5240    9.2057 H   0  0  0  0  0  0  0  0  0  0  0  0
    4.0561   -3.5111   10.8090 H   0  0  0  0  0  0  0  0  0  0  0  0
    6.6285   -2.0544   11.4057 H   0  0  0  0  0  0  0  0  0  0  0  0
    5.7804   -0.8774   12.0993 H   0  0  0  0  0  0  0  0  0  0  0  0
    7.2275   -2.5333   13.8546 H   0  0  0  0  0  0  0  0  0  0  0  0
    6.1528   -1.2966   14.1977 H   0  0  0  0  0  0  0  0  0  0  0  0
    4.7826   -2.5563   14.9524 H   0  0  0  0  0  0  0  0  0  0  0  0
    5.2688   -4.0399   14.8179 H   0  0  0  0  0  0  0  0  0  0  0  0
    2.9007   -3.6796   13.3441 H   0  0  0  0  0  0  0  0  0  0  0  0
    4.1433   -4.6541   12.6420 H   0  0  0  0  0  0  0  0  0  0  0  0
   -4.2747    0.0305   10.2013 H   0  0  0  0  0  0  0  0  0  0  0  0
   -6.3763   -0.1668    9.1013 H   0  0  0  0  0  0  0  0  0  0  0  0
  1  2  1  0
  2  3  2  0
  2  4  2  0
  2  5  1  0
  5  6  1  0
  6  7  1  0
  7  8  1  0
  8  9  2  0
  9 10  1  0
 10 11  2  0
 11 12  1  0
 12 13  1  0
 13 14  2  0
 13 15  1  0
 15 16  1  0
 16 17  1  0
 17 18  1  0
 18 19  1  0
 19 20  1  0
 20 21  1  0
 11 22  1  0
 22 23  2  0
 23  8  1  0
 21 17  1  0
  1 24  1  0
  1 25  1  0
  1 26  1  0
  5 27  1  0
  5 28  1  0
  6 29  1  0
  6 30  1  0
  9 31  1  0
 10 32  1  0
 12 33  1  0
 15 34  1  0
 17 35  1  0
 18 36  1  0
 18 37  1  0
 19 38  1  0
 19 39  1  0
 20 40  1  0
 20 41  1  0
 21 42  1  0
 21 43  1  0
 22 44  1  0
 23 45  1  0
M  END
>  <Energy>  (558) 
430.87689881206398

>  <compound_id>  (558) 
62205

>  <target_id>  (558) 
1

>  <reference_id>  (558) 
95

>  <inspiration_ids>  (558) 
[111, 95]

>  <energy_score>  (558) 
395.2302857251673

>  <distance_score>  (558) 
6.717400814668209

>  <path>  (558) 
/opt/xchem-fragalysis-2/maxwin/BulkDock/SCRATCH/511021/C62205-P95/C62205-P95.minimised.mol

>  <scratch_subdir>  (558) 
/opt/xchem-fragalysis-2/maxwin/BulkDock/SCRATCH/511021/C62205-P95

>  <fragmenstein_runtime>  (558) 
66.74668788909912

>  <fragmenstein_outcome>  (558) 
too moved

>  <fragmenstein_mode>  (558) 
expansion

>  <fragmenstein_error>  (558) 


$$$$
C62211-P111
     RDKit          3D

 54 56  0  0  0  0  0  0  0  0999 V2000
   -5.6477    0.0765    5.9190 O   0  0  0  0  0  0  0  0  0  0  0  0
   -5.3284    0.1952    7.3261 S   0  0  0  0  0  0  0  0  0  0  0  0
   -5.2162    1.5789    7.7664 O   0  0  0  0  0  0  0  0  0  0  0  0
   -6.6513   -0.5922    8.2226 C   0  0  0  0  0  0  0  0  0  0  0  0
   -7.4950   -1.4785    7.3760 C   0  0  0  0  0  0  0  0  0  0  0  0
   -7.1896   -2.7547    6.8451 C   0  0  0  0  0  0  0  0  0  0  0  0
   -8.3181   -3.1383    6.1650 C   0  0  0  0  0  0  0  0  0  0  0  0
   -9.2034   -2.1015    6.2795 N   0  0  0  0  0  0  0  0  0  0  0  0
  -10.5072   -2.0231    5.6227 C   0  0  0  0  0  0  0  0  0  0  0  0
  -10.3705   -1.5358    4.1709 C   0  0  0  0  0  0  0  0  0  0  0  0
  -10.2147   -0.0220    4.0610 C   0  0  0  0  0  0  0  0  0  0  0  0
  -11.3571    0.7022    4.7641 C   0  0  0  0  0  0  0  0  0  0  0  0
  -11.4691    0.2926    6.2281 C   0  0  0  0  0  0  0  0  0  0  0  0
  -11.5697   -1.2243    6.4013 C   0  0  0  0  0  0  0  0  0  0  0  0
   -8.7361   -1.0995    7.0454 N   0  0  0  0  0  0  0  0  0  0  0  0
   -3.6498   -0.7966    7.7574 C   0  0  0  0  0  0  0  0  0  0  0  0
   -2.8202   -0.1047    8.8804 C   0  0  0  0  0  0  0  0  0  0  0  0
   -4.0000   -0.0160    9.6886 O   0  0  0  0  0  0  0  0  0  0  0  0
   -1.5233   -0.9002    9.7829 C   0  0  0  0  0  0  0  0  0  0  0  0
    0.4813   -0.9465   10.2705 C   0  0  0  0  0  0  0  0  0  0  0  0
    1.3578   -0.2817   11.4954 C   0  0  0  0  0  0  0  0  0  0  0  0
    0.8487   -0.0358   12.8800 C   0  0  0  0  0  0  0  0  0  0  0  0
   -0.5923    0.2604   12.8952 C   0  0  0  0  0  0  0  0  0  0  0  0
   -1.4609   -0.5501   11.8781 C   0  0  0  0  0  0  0  0  0  0  0  0
   -7.2524    0.2072    8.6695 H   0  0  0  0  0  0  0  0  0  0  0  0
   -6.2044   -1.1527    9.0293 H   0  0  0  0  0  0  0  0  0  0  0  0
   -6.2759   -3.3216    6.9382 H   0  0  0  0  0  0  0  0  0  0  0  0
   -8.5566   -4.0279    5.5990 H   0  0  0  0  0  0  0  0  0  0  0  0
  -10.8501   -3.0667    5.5968 H   0  0  0  0  0  0  0  0  0  0  0  0
  -11.2705   -1.8305    3.6162 H   0  0  0  0  0  0  0  0  0  0  0  0
   -9.5255   -2.0253    3.6718 H   0  0  0  0  0  0  0  0  0  0  0  0
  -10.1952    0.2669    3.0039 H   0  0  0  0  0  0  0  0  0  0  0  0
   -9.2560    0.2894    4.4921 H   0  0  0  0  0  0  0  0  0  0  0  0
  -12.3009    0.4809    4.2506 H   0  0  0  0  0  0  0  0  0  0  0  0
  -11.2045    1.7853    4.6960 H   0  0  0  0  0  0  0  0  0  0  0  0
  -12.3531    0.7658    6.6716 H   0  0  0  0  0  0  0  0  0  0  0  0
  -10.6066    0.6816    6.7796 H   0  0  0  0  0  0  0  0  0  0  0  0
  -11.5384   -1.4737    7.4682 H   0  0  0  0  0  0  0  0  0  0  0  0
  -12.5597   -1.5342    6.0427 H   0  0  0  0  0  0  0  0  0  0  0  0
   -3.0685   -0.7883    6.8593 H   0  0  0  0  0  0  0  0  0  0  0  0
   -3.9829   -1.8093    7.9900 H   0  0  0  0  0  0  0  0  0  0  0  0
   -2.5063    0.8917    8.6500 H   0  0  0  0  0  0  0  0  0  0  0  0
   -3.8632   -0.5850   10.4770 H   0  0  0  0  0  0  0  0  0  0  0  0
   -2.0230   -1.7503    9.1984 H   0  0  0  0  0  0  0  0  0  0  0  0
    1.1218   -0.2901    9.6752 H   0  0  0  0  0  0  0  0  0  0  0  0
    0.9608   -1.8239    9.8714 H   0  0  0  0  0  0  0  0  0  0  0  0
    2.2314   -0.8621   11.5787 H   0  0  0  0  0  0  0  0  0  0  0  0
    1.8961    0.6281   11.1570 H   0  0  0  0  0  0  0  0  0  0  0  0
    1.3750    0.8221   13.3103 H   0  0  0  0  0  0  0  0  0  0  0  0
    1.0114   -0.8937   13.5306 H   0  0  0  0  0  0  0  0  0  0  0  0
   -0.7623    1.3383   12.8708 H   0  0  0  0  0  0  0  0  0  0  0  0
   -0.9649    0.0109   13.9024 H   0  0  0  0  0  0  0  0  0  0  0  0
   -2.4070   -0.1019   12.2187 H   0  0  0  0  0  0  0  0  0  0  0  0
   -1.5951   -1.4725   12.4710 H   0  0  0  0  0  0  0  0  0  0  0  0
  1  2  2  0
  2  3  2  0
  2  4  1  0
  4  5  1  0
  5  6  1  0
  6  7  2  0
  7  8  1  0
  8  9  1  0
  9 10  1  0
 10 11  1  0
 11 12  1  0
 12 13  1  0
 13 14  1  0
  8 15  1  0
  2 16  1  0
 16 17  1  0
 17 18  1  0
 17 19  1  0
 19 20  1  0
 20 21  1  0
 21 22  1  0
 22 23  1  0
 23 24  1  0
 15  5  2  0
 24 19  1  0
 14  9  1  0
  4 25  1  0
  4 26  1  0
  6 27  1  0
  7 28  1  0
  9 29  1  0
 10 30  1  0
 10 31  1  0
 11 32  1  0
 11 33  1  0
 12 34  1  0
 12 35  1  0
 13 36  1  0
 13 37  1  0
 14 38  1  0
 14 39  1  0
 16 40  1  0
 16 41  1  0
 17 42  1  0
 18 43  1  0
 19 44  1  0
 20 45  1  0
 20 46  1  0
 21 47  1  0
 21 48  1  0
 22 49  1  0
 22 50  1  0
 23 51  1  0
 23 52  1  0
 24 53  1  0
 24 54  1  0
M  END
>  <Energy>  (559) 
386.2252257678926

>  <compound_id>  (559) 
62211

>  <target_id>  (559) 
1

>  <reference_id>  (559) 
111

>  <inspiration_ids>  (559) 
[111, 95]

>  <energy_score>  (559) 
300.4437273660361

>  <distance_score>  (559) 
9.03384951311718

>  <path>  (559) 
/opt/xchem-fragalysis-2/maxwin/BulkDock/SCRATCH/511021/C62211-P111/C62211-P111.minimised.mol

>  <scratch_subdir>  (559) 
/opt/xchem-fragalysis-2/maxwin/BulkDock/SCRATCH/511021/C62211-P111

>  <fragmenstein_runtime>  (559) 
44.521241426467896

>  <fragmenstein_outcome>  (559) 
too moved

>  <fragmenstein_mode>  (559) 
expansion

>  <fragmenstein_error>  (559) 


$$$$
C62211-P95
     RDKit          3D

 54 56  0  0  0  0  0  0  0  0999 V2000
   -2.2131   -2.2841    8.5373 O   0  0  0  0  0  0  0  0  0  0  0  0
   -1.4806   -1.2182    9.2033 S   0  0  0  0  0  0  0  0  0  0  0  0
   -1.1289   -1.2306   10.9514 O   0  0  0  0  0  0  0  0  0  0  0  0
   -2.8086   -0.1072    8.5181 C   0  0  0  0  0  0  0  0  0  0  0  0
   -4.1739   -0.7103    7.9806 C   0  0  0  0  0  0  0  0  0  0  0  0
   -5.4792   -0.5805    8.5072 C   0  0  0  0  0  0  0  0  0  0  0  0
   -6.3510   -1.0467    7.5546 C   0  0  0  0  0  0  0  0  0  0  0  0
   -5.5790   -1.3644    6.4843 N   0  0  0  0  0  0  0  0  0  0  0  0
   -6.0444   -1.6519    5.1306 C   0  0  0  0  0  0  0  0  0  0  0  0
   -6.6246   -0.3843    4.4638 C   0  0  0  0  0  0  0  0  0  0  0  0
   -7.6079   -0.6793    3.3286 C   0  0  0  0  0  0  0  0  0  0  0  0
   -7.2893   -1.9993    2.6458 C   0  0  0  0  0  0  0  0  0  0  0  0
   -7.4011   -3.1692    3.6221 C   0  0  0  0  0  0  0  0  0  0  0  0
   -7.0321   -2.8191    5.0677 C   0  0  0  0  0  0  0  0  0  0  0  0
   -4.2628   -1.1875    6.7144 N   0  0  0  0  0  0  0  0  0  0  0  0
    0.9340   -1.1877    9.7211 C   0  0  0  0  0  0  0  0  0  0  0  0
    2.6016   -1.6508   10.9283 C   0  0  0  0  0  0  0  0  0  0  0  0
    2.3491   -0.0254   11.4383 O   0  0  0  0  0  0  0  0  0  0  0  0
    4.4183   -2.4735   11.8246 C   0  0  0  0  0  0  0  0  0  0  0  0
    5.6002   -2.5674   13.6081 C   0  0  0  0  0  0  0  0  0  0  0  0
    7.1093   -2.3534   14.1171 C   0  0  0  0  0  0  0  0  0  0  0  0
    7.6685   -1.1032   13.6741 C   0  0  0  0  0  0  0  0  0  0  0  0
    7.2230   -1.0301   12.2040 C   0  0  0  0  0  0  0  0  0  0  0  0
    5.7919   -1.0691   12.0556 C   0  0  0  0  0  0  0  0  0  0  0  0
   -2.3297   -0.0495    7.5608 H   0  0  0  0  0  0  0  0  0  0  0  0
   -2.9531    0.9121    8.7906 H   0  0  0  0  0  0  0  0  0  0  0  0
   -5.7916   -0.1868    9.4506 H   0  0  0  0  0  0  0  0  0  0  0  0
   -7.4295   -1.1247    7.5430 H   0  0  0  0  0  0  0  0  0  0  0  0
   -5.1476   -1.9523    4.5691 H   0  0  0  0  0  0  0  0  0  0  0  0
   -5.7878    0.2102    4.0733 H   0  0  0  0  0  0  0  0  0  0  0  0
   -7.1280    0.2630    5.1928 H   0  0  0  0  0  0  0  0  0  0  0  0
   -7.5874    0.1408    2.6022 H   0  0  0  0  0  0  0  0  0  0  0  0
   -8.6282   -0.7170    3.7308 H   0  0  0  0  0  0  0  0  0  0  0  0
   -6.2729   -1.9604    2.2341 H   0  0  0  0  0  0  0  0  0  0  0  0
   -7.9642   -2.1628    1.7980 H   0  0  0  0  0  0  0  0  0  0  0  0
   -6.7666   -3.9885    3.2636 H   0  0  0  0  0  0  0  0  0  0  0  0
   -8.4315   -3.5413    3.6119 H   0  0  0  0  0  0  0  0  0  0  0  0
   -7.9497   -2.5603    5.6122 H   0  0  0  0  0  0  0  0  0  0  0  0
   -6.6242   -3.7058    5.5683 H   0  0  0  0  0  0  0  0  0  0  0  0
    0.6323   -0.7743   10.6823 H   0  0  0  0  0  0  0  0  0  0  0  0
    1.2941   -0.2172    9.3494 H   0  0  0  0  0  0  0  0  0  0  0  0
    1.9057   -2.0844   11.5093 H   0  0  0  0  0  0  0  0  0  0  0  0
    3.0756    0.5209   11.0781 H   0  0  0  0  0  0  0  0  0  0  0  0
    4.6661   -3.4255   11.3629 H   0  0  0  0  0  0  0  0  0  0  0  0
    5.4907   -1.6673   14.2009 H   0  0  0  0  0  0  0  0  0  0  0  0
    4.9883   -2.9368   14.4735 H   0  0  0  0  0  0  0  0  0  0  0  0
    7.1566   -2.2821   15.1841 H   0  0  0  0  0  0  0  0  0  0  0  0
    7.9135   -3.0203   13.9839 H   0  0  0  0  0  0  0  0  0  0  0  0
    7.2748   -0.4326   14.3879 H   0  0  0  0  0  0  0  0  0  0  0  0
    8.7106   -0.9981   13.9931 H   0  0  0  0  0  0  0  0  0  0  0  0
    7.4398   -1.8039   11.5027 H   0  0  0  0  0  0  0  0  0  0  0  0
    7.6448   -0.1285   11.8166 H   0  0  0  0  0  0  0  0  0  0  0  0
    5.6510   -0.4631   12.9157 H   0  0  0  0  0  0  0  0  0  0  0  0
    5.2742   -0.3763   11.4839 H   0  0  0  0  0  0  0  0  0  0  0  0
  1  2  2  0
  2  3  2  0
  2  4  1  0
  4  5  1  0
  5  6  1  0
  6  7  2  0
  7  8  1  0
  8  9  1  0
  9 10  1  0
 10 11  1  0
 11 12  1  0
 12 13  1  0
 13 14  1  0
  8 15  1  0
  2 16  1  0
 16 17  1  0
 17 18  1  0
 17 19  1  0
 19 20  1  0
 20 21  1  0
 21 22  1  0
 22 23  1  0
 23 24  1  0
 15  5  2  0
 24 19  1  0
 14  9  1  0
  4 25  1  0
  4 26  1  0
  6 27  1  0
  7 28  1  0
  9 29  1  0
 10 30  1  0
 10 31  1  0
 11 32  1  0
 11 33  1  0
 12 34  1  0
 12 35  1  0
 13 36  1  0
 13 37  1  0
 14 38  1  0
 14 39  1  0
 16 40  1  0
 16 41  1  0
 17 42  1  0
 18 43  1  0
 19 44  1  0
 20 45  1  0
 20 46  1  0
 21 47  1  0
 21 48  1  0
 22 49  1  0
 22 50  1  0
 23 51  1  0
 23 52  1  0
 24 53  1  0
 24 54  1  0
M  END
>  <Energy>  (560) 
1055.8584139305799

>  <compound_id>  (560) 
62211

>  <target_id>  (560) 
1

>  <reference_id>  (560) 
95

>  <inspiration_ids>  (560) 
[111, 95]

>  <energy_score>  (560) 
970.0769155287261

>  <distance_score>  (560) 
5.890510420195201

>  <path>  (560) 
/opt/xchem-fragalysis-2/maxwin/BulkDock/SCRATCH/511021/C62211-P95/C62211-P95.minimised.mol

>  <scratch_subdir>  (560) 
/opt/xchem-fragalysis-2/maxwin/BulkDock/SCRATCH/511021/C62211-P95

>  <fragmenstein_runtime>  (560) 
28.62257432937622

>  <fragmenstein_outcome>  (560) 
too moved

>  <fragmenstein_mode>  (560) 
expansion

>  <fragmenstein_error>  (560) 


$$$$
C62222-P111
     RDKit          3D

 51 52  0  0  0  0  0  0  0  0999 V2000
   11.6412    1.9299   14.2683 C   0  0  0  0  0  0  0  0  0  0  0  0
   10.9146    2.2966   12.9792 C   0  0  0  0  0  0  0  0  0  0  0  0
   10.1361    1.0980   12.4178 C   0  0  0  0  0  0  0  0  0  0  0  0
    9.3213    1.4034   10.6736 C   0  0  0  0  0  0  0  0  0  0  0  0
    7.1839    0.5569   10.3631 N   0  0  0  0  0  0  0  0  0  0  0  0
    6.5480    0.5982    8.6241 N   0  0  0  0  0  0  0  0  0  0  0  0
    5.7728    1.6621    8.2650 N   0  0  0  0  0  0  0  0  0  0  0  0
    5.1520    2.0658    9.3285 N   0  0  0  0  0  0  0  0  0  0  0  0
    5.1761    0.8755    9.9412 C   0  0  0  0  0  0  0  0  0  0  0  0
    3.1016    0.5224   10.3126 C   0  0  0  0  0  0  0  0  0  0  0  0
    1.0240   -0.9027   10.0100 S   0  0  0  0  0  0  0  0  0  0  0  0
    1.2764   -2.0519    9.1140 O   0  0  0  0  0  0  0  0  0  0  0  0
    0.8022   -1.3090   11.4269 O   0  0  0  0  0  0  0  0  0  0  0  0
   -1.3937   -0.7689    9.2949 C   0  0  0  0  0  0  0  0  0  0  0  0
   -2.8683   -1.3375    8.4320 C   0  0  0  0  0  0  0  0  0  0  0  0
   -4.0812   -0.5664    8.7462 O   0  0  0  0  0  0  0  0  0  0  0  0
   -5.3927   -0.7354    8.1126 C   0  0  0  0  0  0  0  0  0  0  0  0
   -5.8050    0.5730    7.4100 C   0  0  0  0  0  0  0  0  0  0  0  0
   -7.3118    0.8728    7.2797 C   0  0  0  0  0  0  0  0  0  0  0  0
   -8.2877   -0.2564    7.5938 C   0  0  0  0  0  0  0  0  0  0  0  0
   -8.2078   -1.4527    6.6572 C   0  0  0  0  0  0  0  0  0  0  0  0
   -6.8090   -1.7869    6.1530 C   0  0  0  0  0  0  0  0  0  0  0  0
   -5.7308   -1.9622    7.2394 C   0  0  0  0  0  0  0  0  0  0  0  0
   12.1862    2.7966   14.6550 H   0  0  0  0  0  0  0  0  0  0  0  0
   12.3614    1.1236   14.0971 H   0  0  0  0  0  0  0  0  0  0  0  0
   10.9327    1.6019   15.0357 H   0  0  0  0  0  0  0  0  0  0  0  0
   10.2340    3.1320   13.1752 H   0  0  0  0  0  0  0  0  0  0  0  0
   11.6497    2.6363   12.2408 H   0  0  0  0  0  0  0  0  0  0  0  0
   10.8778    0.3124   12.2783 H   0  0  0  0  0  0  0  0  0  0  0  0
    9.3840    0.7214   13.1150 H   0  0  0  0  0  0  0  0  0  0  0  0
   10.1368    1.1765    9.8327 H   0  0  0  0  0  0  0  0  0  0  0  0
    9.8023    2.4994   10.9431 H   0  0  0  0  0  0  0  0  0  0  0  0
    2.7447    1.4075    9.7469 H   0  0  0  0  0  0  0  0  0  0  0  0
    3.1202    0.7557   11.3835 H   0  0  0  0  0  0  0  0  0  0  0  0
   -1.2947   -1.5219    8.4855 H   0  0  0  0  0  0  0  0  0  0  0  0
   -1.7492    0.2155    8.9545 H   0  0  0  0  0  0  0  0  0  0  0  0
   -3.0618   -2.3993    8.5516 H   0  0  0  0  0  0  0  0  0  0  0  0
   -2.7213   -1.0854    7.3859 H   0  0  0  0  0  0  0  0  0  0  0  0
   -6.0473   -0.7981    8.9845 H   0  0  0  0  0  0  0  0  0  0  0  0
   -5.3611    1.4222    7.9284 H   0  0  0  0  0  0  0  0  0  0  0  0
   -5.3550    0.6017    6.4113 H   0  0  0  0  0  0  0  0  0  0  0  0
   -7.5442    1.7014    7.9620 H   0  0  0  0  0  0  0  0  0  0  0  0
   -7.5108    1.2615    6.2729 H   0  0  0  0  0  0  0  0  0  0  0  0
   -9.3105    0.1403    7.5585 H   0  0  0  0  0  0  0  0  0  0  0  0
   -8.1496   -0.5888    8.6283 H   0  0  0  0  0  0  0  0  0  0  0  0
   -8.6395   -2.3266    7.1608 H   0  0  0  0  0  0  0  0  0  0  0  0
   -8.8450   -1.2619    5.7842 H   0  0  0  0  0  0  0  0  0  0  0  0
   -6.5251   -1.0192    5.4296 H   0  0  0  0  0  0  0  0  0  0  0  0
   -6.8813   -2.7272    5.5912 H   0  0  0  0  0  0  0  0  0  0  0  0
   -4.8324   -2.4549    6.8730 H   0  0  0  0  0  0  0  0  0  0  0  0
   -6.1714   -2.7368    7.8335 H   0  0  0  0  0  0  0  0  0  0  0  0
  1  2  1  0
  2  3  1  0
  3  4  1  0
  4  5  1  0
  5  6  1  0
  6  7  2  0
  7  8  1  0
  8  9  2  0
  9 10  1  0
 10 11  1  0
 11 12  2  0
 11 13  2  0
 11 14  1  0
 14 15  1  0
 15 16  1  0
 16 17  1  0
 17 18  1  0
 18 19  1  0
 19 20  1  0
 20 21  1  0
 21 22  1  0
 22 23  1  0
  9  5  1  0
 23 17  1  0
  1 24  1  0
  1 25  1  0
  1 26  1  0
  2 27  1  0
  2 28  1  0
  3 29  1  0
  3 30  1  0
  4 31  1  0
  4 32  1  0
 10 33  1  0
 10 34  1  0
 14 35  1  0
 14 36  1  0
 15 37  1  0
 15 38  1  0
 17 39  1  0
 18 40  1  0
 18 41  1  0
 19 42  1  0
 19 43  1  0
 20 44  1  0
 20 45  1  0
 21 46  1  0
 21 47  1  0
 22 48  1  0
 22 49  1  0
 23 50  1  0
 23 51  1  0
M  END
>  <Energy>  (561) 
1522.6479529755643

>  <compound_id>  (561) 
62222

>  <target_id>  (561) 
1

>  <reference_id>  (561) 
111

>  <inspiration_ids>  (561) 
[111, 95]

>  <energy_score>  (561) 
1455.7184817201965

>  <distance_score>  (561) 
5.728396980206822

>  <path>  (561) 
/opt/xchem-fragalysis-2/maxwin/BulkDock/SCRATCH/511021/C62222-P111/C62222-P111.minimised.mol

>  <scratch_subdir>  (561) 
/opt/xchem-fragalysis-2/maxwin/BulkDock/SCRATCH/511021/C62222-P111

>  <fragmenstein_runtime>  (561) 
25.46433925628662

>  <fragmenstein_outcome>  (561) 
too moved

>  <fragmenstein_mode>  (561) 
expansion

>  <fragmenstein_error>  (561) 


$$$$
C62222-P95
     RDKit          3D

 51 52  0  0  0  0  0  0  0  0999 V2000
    3.7390    0.6215   16.4474 C   0  0  0  0  0  0  0  0  0  0  0  0
    2.7000    1.0923   15.4286 C   0  0  0  0  0  0  0  0  0  0  0  0
    1.5689    0.0647   15.1258 C   0  0  0  0  0  0  0  0  0  0  0  0
    0.8340    0.3954   13.7791 C   0  0  0  0  0  0  0  0  0  0  0  0
   -0.2372   -0.5364   13.1281 N   0  0  0  0  0  0  0  0  0  0  0  0
   -0.5029   -1.5814   13.9630 N   0  0  0  0  0  0  0  0  0  0  0  0
    0.5181   -2.3578   13.6581 N   0  0  0  0  0  0  0  0  0  0  0  0
    0.9938   -1.9847   12.3929 N   0  0  0  0  0  0  0  0  0  0  0  0
   -0.0009   -1.3056   11.8006 C   0  0  0  0  0  0  0  0  0  0  0  0
   -0.0254   -1.0753    9.9381 C   0  0  0  0  0  0  0  0  0  0  0  0
   -2.1412   -1.1499    8.7504 S   0  0  0  0  0  0  0  0  0  0  0  0
   -2.8102   -2.4264    8.8962 O   0  0  0  0  0  0  0  0  0  0  0  0
   -2.9565    0.0617    8.9318 O   0  0  0  0  0  0  0  0  0  0  0  0
   -2.6576   -1.4081    7.0907 C   0  0  0  0  0  0  0  0  0  0  0  0
   -4.0116   -2.2026    6.8909 C   0  0  0  0  0  0  0  0  0  0  0  0
   -4.6204   -1.9747    5.6047 O   0  0  0  0  0  0  0  0  0  0  0  0
   -5.9399   -2.5623    5.5233 C   0  0  0  0  0  0  0  0  0  0  0  0
   -7.0111   -1.6340    6.1150 C   0  0  0  0  0  0  0  0  0  0  0  0
   -7.3254   -0.3695    5.3139 C   0  0  0  0  0  0  0  0  0  0  0  0
   -8.1610   -0.6571    4.0701 C   0  0  0  0  0  0  0  0  0  0  0  0
   -7.3621   -1.0388    2.8286 C   0  0  0  0  0  0  0  0  0  0  0  0
   -6.0838   -1.8449    3.0473 C   0  0  0  0  0  0  0  0  0  0  0  0
   -6.2056   -2.9745    4.0680 C   0  0  0  0  0  0  0  0  0  0  0  0
    4.2735   -0.2676   16.1047 H   0  0  0  0  0  0  0  0  0  0  0  0
    3.2554    0.3800   17.3993 H   0  0  0  0  0  0  0  0  0  0  0  0
    4.4723    1.4126   16.6314 H   0  0  0  0  0  0  0  0  0  0  0  0
    2.2306    2.0091   15.8070 H   0  0  0  0  0  0  0  0  0  0  0  0
    3.2065    1.3812   14.5056 H   0  0  0  0  0  0  0  0  0  0  0  0
    1.9579   -0.9549   15.1272 H   0  0  0  0  0  0  0  0  0  0  0  0
    0.8358    0.0968   15.9417 H   0  0  0  0  0  0  0  0  0  0  0  0
    1.6046    0.5349   13.0220 H   0  0  0  0  0  0  0  0  0  0  0  0
    0.2747    1.3291   13.9265 H   0  0  0  0  0  0  0  0  0  0  0  0
    0.9021   -0.6236    9.4919 H   0  0  0  0  0  0  0  0  0  0  0  0
    0.4963   -1.8632    9.4642 H   0  0  0  0  0  0  0  0  0  0  0  0
   -1.8540   -1.7941    6.5143 H   0  0  0  0  0  0  0  0  0  0  0  0
   -3.0156   -0.4836    6.7404 H   0  0  0  0  0  0  0  0  0  0  0  0
   -4.7247   -1.8765    7.6551 H   0  0  0  0  0  0  0  0  0  0  0  0
   -3.8402   -3.2807    6.9907 H   0  0  0  0  0  0  0  0  0  0  0  0
   -5.9428   -3.4872    6.1152 H   0  0  0  0  0  0  0  0  0  0  0  0
   -7.9358   -2.2082    6.2563 H   0  0  0  0  0  0  0  0  0  0  0  0
   -6.7012   -1.3122    7.1154 H   0  0  0  0  0  0  0  0  0  0  0  0
   -7.9189    0.2857    5.9647 H   0  0  0  0  0  0  0  0  0  0  0  0
   -6.4130    0.1854    5.0685 H   0  0  0  0  0  0  0  0  0  0  0  0
   -8.7506    0.2357    3.8252 H   0  0  0  0  0  0  0  0  0  0  0  0
   -8.8948   -1.4436    4.2869 H   0  0  0  0  0  0  0  0  0  0  0  0
   -8.0259   -1.5942    2.1535 H   0  0  0  0  0  0  0  0  0  0  0  0
   -7.0907   -0.1235    2.2868 H   0  0  0  0  0  0  0  0  0  0  0  0
   -5.2623   -1.1697    3.3134 H   0  0  0  0  0  0  0  0  0  0  0  0
   -5.8034   -2.2796    2.0792 H   0  0  0  0  0  0  0  0  0  0  0  0
   -5.4506   -3.7253    3.8028 H   0  0  0  0  0  0  0  0  0  0  0  0
   -7.1800   -3.4691    3.9819 H   0  0  0  0  0  0  0  0  0  0  0  0
  1  2  1  0
  2  3  1  0
  3  4  1  0
  4  5  1  0
  5  6  1  0
  6  7  2  0
  7  8  1  0
  8  9  2  0
  9 10  1  0
 10 11  1  0
 11 12  2  0
 11 13  2  0
 11 14  1  0
 14 15  1  0
 15 16  1  0
 16 17  1  0
 17 18  1  0
 18 19  1  0
 19 20  1  0
 20 21  1  0
 21 22  1  0
 22 23  1  0
  9  5  1  0
 23 17  1  0
  1 24  1  0
  1 25  1  0
  1 26  1  0
  2 27  1  0
  2 28  1  0
  3 29  1  0
  3 30  1  0
  4 31  1  0
  4 32  1  0
 10 33  1  0
 10 34  1  0
 14 35  1  0
 14 36  1  0
 15 37  1  0
 15 38  1  0
 17 39  1  0
 18 40  1  0
 18 41  1  0
 19 42  1  0
 19 43  1  0
 20 44  1  0
 20 45  1  0
 21 46  1  0
 21 47  1  0
 22 48  1  0
 22 49  1  0
 23 50  1  0
 23 51  1  0
M  END
>  <Energy>  (562) 
310.31335980254624

>  <compound_id>  (562) 
62222

>  <target_id>  (562) 
1

>  <reference_id>  (562) 
95

>  <inspiration_ids>  (562) 
[111, 95]

>  <energy_score>  (562) 
243.38388854716823

>  <distance_score>  (562) 
8.405697530422422

>  <path>  (562) 
/opt/xchem-fragalysis-2/maxwin/BulkDock/SCRATCH/511021/C62222-P95/C62222-P95.minimised.mol

>  <scratch_subdir>  (562) 
/opt/xchem-fragalysis-2/maxwin/BulkDock/SCRATCH/511021/C62222-P95

>  <fragmenstein_runtime>  (562) 
30.007323741912842

>  <fragmenstein_outcome>  (562) 
too moved

>  <fragmenstein_mode>  (562) 
expansion

>  <fragmenstein_error>  (562) 


$$$$
C62224-P111
     RDKit          3D

 43 45  0  0  0  0  0  0  0  0999 V2000
    1.6425   -1.7224    7.7053 O   0  0  0  0  0  0  0  0  0  0  0  0
    1.0476   -2.3500    8.9306 S   0  0  0  0  0  0  0  0  0  0  0  0
    1.3288   -3.7976    8.6630 O   0  0  0  0  0  0  0  0  0  0  0  0
   -1.3604   -1.6325    8.4797 C   0  0  0  0  0  0  0  0  0  0  0  0
   -2.9313   -2.2913    8.2550 C   0  0  0  0  0  0  0  0  0  0  0  0
   -4.0897   -1.3122    8.3513 O   0  0  0  0  0  0  0  0  0  0  0  0
   -5.2666   -1.3491    7.4421 C   0  0  0  0  0  0  0  0  0  0  0  0
   -5.4504    0.0857    6.9125 C   0  0  0  0  0  0  0  0  0  0  0  0
   -6.6662    0.4243    6.0543 C   0  0  0  0  0  0  0  0  0  0  0  0
   -7.9494    0.0821    6.7670 C   0  0  0  0  0  0  0  0  0  0  0  0
   -7.8995   -1.3844    7.1058 C   0  0  0  0  0  0  0  0  0  0  0  0
   -6.6645   -1.7534    7.9427 C   0  0  0  0  0  0  0  0  0  0  0  0
    2.5343   -2.5106   10.9005 C   0  0  0  0  0  0  0  0  0  0  0  0
    4.0553   -3.1185   12.0250 C   0  0  0  0  0  0  0  0  0  0  0  0
    3.6018   -3.4664   13.2886 N   0  0  0  0  0  0  0  0  0  0  0  0
    4.8250   -3.1253   14.4666 N   0  0  0  0  0  0  0  0  0  0  0  0
    5.9494   -2.9670   13.9172 N   0  0  0  0  0  0  0  0  0  0  0  0
    5.7244   -2.6161   12.5728 N   0  0  0  0  0  0  0  0  0  0  0  0
    6.9182   -1.2429   12.7507 C   0  0  0  0  0  0  0  0  0  0  0  0
    7.8156   -1.7805   14.2127 C   0  0  0  0  0  0  0  0  0  0  0  0
    8.2468   -0.5009   13.7804 C   0  0  0  0  0  0  0  0  0  0  0  0
   -1.5927   -0.7675    9.1537 H   0  0  0  0  0  0  0  0  0  0  0  0
   -1.3854   -1.2804    7.4341 H   0  0  0  0  0  0  0  0  0  0  0  0
   -3.1410   -3.0440    7.5089 H   0  0  0  0  0  0  0  0  0  0  0  0
   -3.0457   -2.9107    9.0803 H   0  0  0  0  0  0  0  0  0  0  0  0
   -5.0711   -2.1346    6.7209 H   0  0  0  0  0  0  0  0  0  0  0  0
   -5.4189    0.7777    7.7637 H   0  0  0  0  0  0  0  0  0  0  0  0
   -4.6056    0.3182    6.2898 H   0  0  0  0  0  0  0  0  0  0  0  0
   -6.6526    1.4925    5.8086 H   0  0  0  0  0  0  0  0  0  0  0  0
   -6.6187   -0.1178    5.1035 H   0  0  0  0  0  0  0  0  0  0  0  0
   -8.8116    0.2978    6.1271 H   0  0  0  0  0  0  0  0  0  0  0  0
   -8.0562    0.6829    7.6777 H   0  0  0  0  0  0  0  0  0  0  0  0
   -7.8949   -1.9732    6.1787 H   0  0  0  0  0  0  0  0  0  0  0  0
   -8.8054   -1.6735    7.6517 H   0  0  0  0  0  0  0  0  0  0  0  0
   -6.7075   -2.8376    7.8485 H   0  0  0  0  0  0  0  0  0  0  0  0
   -6.8083   -1.4048    8.9653 H   0  0  0  0  0  0  0  0  0  0  0  0
    2.6801   -3.6027   10.6318 H   0  0  0  0  0  0  0  0  0  0  0  0
    1.8453   -2.2185   11.7268 H   0  0  0  0  0  0  0  0  0  0  0  0
    7.2815   -1.2028   11.7354 H   0  0  0  0  0  0  0  0  0  0  0  0
    7.3133   -1.7749   15.1836 H   0  0  0  0  0  0  0  0  0  0  0  0
    8.4703   -2.6365   14.2260 H   0  0  0  0  0  0  0  0  0  0  0  0
    8.3736    0.0868   14.7090 H   0  0  0  0  0  0  0  0  0  0  0  0
    9.1029   -0.0527   13.2789 H   0  0  0  0  0  0  0  0  0  0  0  0
  1  2  2  0
  2  3  2  0
  2  4  1  0
  4  5  1  0
  5  6  1  0
  6  7  1  0
  7  8  1  0
  8  9  1  0
  9 10  1  0
 10 11  1  0
 11 12  1  0
  2 13  1  0
 13 14  1  0
 14 15  2  0
 15 16  1  0
 16 17  2  0
 17 18  1  0
 18 19  1  0
 19 20  1  0
 20 21  1  0
 12  7  1  0
 18 14  1  0
 21 19  1  0
  4 22  1  0
  4 23  1  0
  5 24  1  0
  5 25  1  0
  7 26  1  0
  8 27  1  0
  8 28  1  0
  9 29  1  0
  9 30  1  0
 10 31  1  0
 10 32  1  0
 11 33  1  0
 11 34  1  0
 12 35  1  0
 12 36  1  0
 13 37  1  0
 13 38  1  0
 19 39  1  0
 20 40  1  0
 20 41  1  0
 21 42  1  0
 21 43  1  0
M  END
>  <Energy>  (563) 
857.28710881354925

>  <compound_id>  (563) 
62224

>  <target_id>  (563) 
1

>  <reference_id>  (563) 
111

>  <inspiration_ids>  (563) 
[111, 95]

>  <energy_score>  (563) 
793.0458144350443

>  <distance_score>  (563) 
5.95391576820788

>  <path>  (563) 
/opt/xchem-fragalysis-2/maxwin/BulkDock/SCRATCH/511021/C62224-P111/C62224-P111.minimised.mol

>  <scratch_subdir>  (563) 
/opt/xchem-fragalysis-2/maxwin/BulkDock/SCRATCH/511021/C62224-P111

>  <fragmenstein_runtime>  (563) 
32.15842628479004

>  <fragmenstein_outcome>  (563) 
too moved

>  <fragmenstein_mode>  (563) 
expansion

>  <fragmenstein_error>  (563) 


$$$$
C62224-P95
     RDKit          3D

 43 45  0  0  0  0  0  0  0  0999 V2000
    1.2475   -1.3019    9.4442 O   0  0  0  0  0  0  0  0  0  0  0  0
    1.0503   -2.2591    8.1800 S   0  0  0  0  0  0  0  0  0  0  0  0
    1.0389   -3.7395    8.2337 O   0  0  0  0  0  0  0  0  0  0  0  0
   -1.4337   -1.6671    8.4361 C   0  0  0  0  0  0  0  0  0  0  0  0
   -2.7181   -2.2288    7.5379 C   0  0  0  0  0  0  0  0  0  0  0  0
   -3.9265   -1.4529    7.8000 O   0  0  0  0  0  0  0  0  0  0  0  0
   -5.0851   -1.8113    7.0152 C   0  0  0  0  0  0  0  0  0  0  0  0
   -6.2453   -0.9288    7.5178 C   0  0  0  0  0  0  0  0  0  0  0  0
   -7.3663   -0.7016    6.5009 C   0  0  0  0  0  0  0  0  0  0  0  0
   -7.4721   -1.8430    5.5042 C   0  0  0  0  0  0  0  0  0  0  0  0
   -6.1755   -2.0117    4.7149 C   0  0  0  0  0  0  0  0  0  0  0  0
   -4.9144   -1.6283    5.5020 C   0  0  0  0  0  0  0  0  0  0  0  0
    3.1540   -3.1078    8.5179 C   0  0  0  0  0  0  0  0  0  0  0  0
    4.7385   -4.0734    8.1599 C   0  0  0  0  0  0  0  0  0  0  0  0
    4.8705   -4.9794    7.1874 N   0  0  0  0  0  0  0  0  0  0  0  0
    6.0258   -5.6786    7.4212 N   0  0  0  0  0  0  0  0  0  0  0  0
    6.7651   -5.1830    8.3996 N   0  0  0  0  0  0  0  0  0  0  0  0
    6.2980   -3.9104    8.7688 N   0  0  0  0  0  0  0  0  0  0  0  0
    7.3349   -2.9745   10.2119 C   0  0  0  0  0  0  0  0  0  0  0  0
    6.6560   -1.9095   11.6441 C   0  0  0  0  0  0  0  0  0  0  0  0
    7.2850   -1.1001   10.7420 C   0  0  0  0  0  0  0  0  0  0  0  0
   -1.7315   -0.7059    7.9594 H   0  0  0  0  0  0  0  0  0  0  0  0
   -1.7366   -1.3037    9.3634 H   0  0  0  0  0  0  0  0  0  0  0  0
   -2.4904   -1.9452    6.5250 H   0  0  0  0  0  0  0  0  0  0  0  0
   -2.9926   -3.2750    7.6694 H   0  0  0  0  0  0  0  0  0  0  0  0
   -5.3203   -2.8633    7.2118 H   0  0  0  0  0  0  0  0  0  0  0  0
   -6.6667   -1.3894    8.4180 H   0  0  0  0  0  0  0  0  0  0  0  0
   -5.8681    0.0464    7.8531 H   0  0  0  0  0  0  0  0  0  0  0  0
   -8.3180   -0.5670    7.0274 H   0  0  0  0  0  0  0  0  0  0  0  0
   -7.1760    0.2330    5.9580 H   0  0  0  0  0  0  0  0  0  0  0  0
   -8.3059   -1.6735    4.8138 H   0  0  0  0  0  0  0  0  0  0  0  0
   -7.6952   -2.7730    6.0424 H   0  0  0  0  0  0  0  0  0  0  0  0
   -6.2145   -1.4052    3.8018 H   0  0  0  0  0  0  0  0  0  0  0  0
   -6.1002   -3.0551    4.3844 H   0  0  0  0  0  0  0  0  0  0  0  0
   -4.6567   -0.5845    5.2897 H   0  0  0  0  0  0  0  0  0  0  0  0
   -4.0782   -2.2167    5.1162 H   0  0  0  0  0  0  0  0  0  0  0  0
    3.2748   -3.0934    9.5901 H   0  0  0  0  0  0  0  0  0  0  0  0
    2.8332   -4.0395    8.0594 H   0  0  0  0  0  0  0  0  0  0  0  0
    8.0002   -2.7195    9.3769 H   0  0  0  0  0  0  0  0  0  0  0  0
    5.6613   -2.2091   11.9360 H   0  0  0  0  0  0  0  0  0  0  0  0
    7.1173   -1.7335   12.6439 H   0  0  0  0  0  0  0  0  0  0  0  0
    7.7831   -0.4569   11.4576 H   0  0  0  0  0  0  0  0  0  0  0  0
    6.7897   -0.3809   10.1051 H   0  0  0  0  0  0  0  0  0  0  0  0
  1  2  2  0
  2  3  2  0
  2  4  1  0
  4  5  1  0
  5  6  1  0
  6  7  1  0
  7  8  1  0
  8  9  1  0
  9 10  1  0
 10 11  1  0
 11 12  1  0
  2 13  1  0
 13 14  1  0
 14 15  2  0
 15 16  1  0
 16 17  2  0
 17 18  1  0
 18 19  1  0
 19 20  1  0
 20 21  1  0
 12  7  1  0
 18 14  1  0
 21 19  1  0
  4 22  1  0
  4 23  1  0
  5 24  1  0
  5 25  1  0
  7 26  1  0
  8 27  1  0
  8 28  1  0
  9 29  1  0
  9 30  1  0
 10 31  1  0
 10 32  1  0
 11 33  1  0
 11 34  1  0
 12 35  1  0
 12 36  1  0
 13 37  1  0
 13 38  1  0
 19 39  1  0
 20 40  1  0
 20 41  1  0
 21 42  1  0
 21 43  1  0
M  END
>  <Energy>  (564) 
815.20667655609282

>  <compound_id>  (564) 
62224

>  <target_id>  (564) 
1

>  <reference_id>  (564) 
95

>  <inspiration_ids>  (564) 
[111, 95]

>  <energy_score>  (564) 
750.9653821775792

>  <distance_score>  (564) 
6.776477578578388

>  <path>  (564) 
/opt/xchem-fragalysis-2/maxwin/BulkDock/SCRATCH/511021/C62224-P95/C62224-P95.minimised.mol

>  <scratch_subdir>  (564) 
/opt/xchem-fragalysis-2/maxwin/BulkDock/SCRATCH/511021/C62224-P95

>  <fragmenstein_runtime>  (564) 
25.08021569252014

>  <fragmenstein_outcome>  (564) 
too moved

>  <fragmenstein_mode>  (564) 
expansion

>  <fragmenstein_error>  (564) 


$$$$
C62236-P111
     RDKit          3D

 48 49  0  0  0  0  0  0  0  0999 V2000
   -5.2552    0.9283    7.6583 C   0  0  0  0  0  0  0  0  0  0  0  0
   -4.6422   -0.3527    8.2652 C   0  0  0  0  0  0  0  0  0  0  0  0
   -3.0933   -0.2988    9.0436 N   0  0  0  0  0  0  0  0  0  0  0  0
   -1.6422   -0.9913    8.9648 C   0  0  0  0  0  0  0  0  0  0  0  0
   -1.5724   -1.2995    7.4755 C   0  0  0  0  0  0  0  0  0  0  0  0
    0.0313   -1.5154    6.7021 C   0  0  0  0  0  0  0  0  0  0  0  0
    1.3925   -1.8454    7.9673 C   0  0  0  0  0  0  0  0  0  0  0  0
    1.3263   -1.3913    9.7759 C   0  0  0  0  0  0  0  0  0  0  0  0
    2.3041   -0.7974   11.2463 O   0  0  0  0  0  0  0  0  0  0  0  0
    4.2212   -0.3707   11.2055 C   0  0  0  0  0  0  0  0  0  0  0  0
    5.9891   -0.8511   12.1736 C   0  0  0  0  0  0  0  0  0  0  0  0
    6.8150   -1.1371   14.0484 S   0  0  0  0  0  0  0  0  0  0  0  0
    8.4442   -0.3777   14.3470 C   0  0  0  0  0  0  0  0  0  0  0  0
    7.1061   -2.5629   14.1670 O   0  0  0  0  0  0  0  0  0  0  0  0
    6.0451   -0.5109   15.1049 O   0  0  0  0  0  0  0  0  0  0  0  0
   -0.0251   -1.0573   10.1056 C   0  0  0  0  0  0  0  0  0  0  0  0
   -5.6969   -1.4988    7.9035 C   0  0  0  0  0  0  0  0  0  0  0  0
   -7.1405   -1.0422    7.4299 C   0  0  0  0  0  0  0  0  0  0  0  0
   -8.1225   -2.2094    7.2978 C   0  0  0  0  0  0  0  0  0  0  0  0
   -7.5991   -3.3084    6.3925 C   0  0  0  0  0  0  0  0  0  0  0  0
   -6.2205   -3.0668    5.9877 N   0  0  0  0  0  0  0  0  0  0  0  0
   -5.3367   -2.7495    7.1072 C   0  0  0  0  0  0  0  0  0  0  0  0
   -4.8602    1.8424    8.0698 H   0  0  0  0  0  0  0  0  0  0  0  0
   -5.2291    0.9141    6.5634 H   0  0  0  0  0  0  0  0  0  0  0  0
   -6.3030    1.0792    7.9304 H   0  0  0  0  0  0  0  0  0  0  0  0
   -5.0773   -0.1725    9.2541 H   0  0  0  0  0  0  0  0  0  0  0  0
   -3.3152   -0.5105   10.0073 H   0  0  0  0  0  0  0  0  0  0  0  0
   -2.4995   -1.0030    6.9893 H   0  0  0  0  0  0  0  0  0  0  0  0
    0.2349   -1.2434    5.6827 H   0  0  0  0  0  0  0  0  0  0  0  0
    2.3140   -1.8703    7.3862 H   0  0  0  0  0  0  0  0  0  0  0  0
    4.0236   -1.3775   11.5118 H   0  0  0  0  0  0  0  0  0  0  0  0
    3.9224    0.6636   11.4388 H   0  0  0  0  0  0  0  0  0  0  0  0
    6.8385   -0.7148   11.4831 H   0  0  0  0  0  0  0  0  0  0  0  0
    6.1005   -1.9638   12.2328 H   0  0  0  0  0  0  0  0  0  0  0  0
    8.3552    0.3346   15.1754 H   0  0  0  0  0  0  0  0  0  0  0  0
    8.8188    0.1490   13.4733 H   0  0  0  0  0  0  0  0  0  0  0  0
    9.1306   -1.1433   14.7192 H   0  0  0  0  0  0  0  0  0  0  0  0
   -0.0811   -0.8445   11.1782 H   0  0  0  0  0  0  0  0  0  0  0  0
   -5.9921   -1.7836    8.8892 H   0  0  0  0  0  0  0  0  0  0  0  0
   -7.5858   -0.3650    8.1685 H   0  0  0  0  0  0  0  0  0  0  0  0
   -7.0818   -0.5196    6.4671 H   0  0  0  0  0  0  0  0  0  0  0  0
   -8.3248   -2.6255    8.2905 H   0  0  0  0  0  0  0  0  0  0  0  0
   -9.0808   -1.8360    6.9177 H   0  0  0  0  0  0  0  0  0  0  0  0
   -8.2198   -3.3692    5.4916 H   0  0  0  0  0  0  0  0  0  0  0  0
   -7.6865   -4.2799    6.8941 H   0  0  0  0  0  0  0  0  0  0  0  0
   -5.8902   -3.8949    5.4955 H   0  0  0  0  0  0  0  0  0  0  0  0
   -4.2910   -2.7454    6.8538 H   0  0  0  0  0  0  0  0  0  0  0  0
   -5.4092   -3.6363    7.7017 H   0  0  0  0  0  0  0  0  0  0  0  0
  1  2  1  0
  2  3  1  0
  3  4  1  0
  4  5  2  0
  5  6  1  0
  6  7  2  0
  7  8  1  0
  8  9  1  0
  9 10  1  0
 10 11  1  0
 11 12  1  0
 12 13  1  0
 12 14  2  0
 12 15  2  0
  8 16  2  0
  2 17  1  0
 17 18  1  0
 18 19  1  0
 19 20  1  0
 20 21  1  0
 21 22  1  0
 16  4  1  0
 22 17  1  0
  1 23  1  0
  1 24  1  0
  1 25  1  0
  2 26  1  0
  3 27  1  0
  5 28  1  0
  6 29  1  0
  7 30  1  0
 10 31  1  0
 10 32  1  0
 11 33  1  0
 11 34  1  0
 13 35  1  0
 13 36  1  0
 13 37  1  0
 16 38  1  0
 17 39  1  0
 18 40  1  0
 18 41  1  0
 19 42  1  0
 19 43  1  0
 20 44  1  0
 20 45  1  0
 21 46  1  0
 22 47  1  0
 22 48  1  0
M  END
>  <Energy>  (565) 
838.5599062001769

>  <compound_id>  (565) 
62236

>  <target_id>  (565) 
1

>  <reference_id>  (565) 
111

>  <inspiration_ids>  (565) 
[111, 95]

>  <energy_score>  (565) 
768.4709486205089

>  <distance_score>  (565) 
7.2201974026961935

>  <path>  (565) 
/opt/xchem-fragalysis-2/maxwin/BulkDock/SCRATCH/511021/C62236-P111/C62236-P111.minimised.mol

>  <scratch_subdir>  (565) 
/opt/xchem-fragalysis-2/maxwin/BulkDock/SCRATCH/511021/C62236-P111

>  <fragmenstein_runtime>  (565) 
36.620901107788086

>  <fragmenstein_outcome>  (565) 
too moved

>  <fragmenstein_mode>  (565) 
expansion

>  <fragmenstein_error>  (565) 


$$$$
C62236-P95
     RDKit          3D

 48 49  0  0  0  0  0  0  0  0999 V2000
   -0.1267    4.7394    8.4450 C   0  0  0  0  0  0  0  0  0  0  0  0
    1.2436    4.8202    7.7869 C   0  0  0  0  0  0  0  0  0  0  0  0
    2.0820    3.5836    8.0524 N   0  0  0  0  0  0  0  0  0  0  0  0
    2.7025    3.3051    9.3215 C   0  0  0  0  0  0  0  0  0  0  0  0
    2.3589    3.9784   10.4926 C   0  0  0  0  0  0  0  0  0  0  0  0
    2.6187    3.4148   11.7572 C   0  0  0  0  0  0  0  0  0  0  0  0
    3.1827    2.1281   11.8973 C   0  0  0  0  0  0  0  0  0  0  0  0
    3.7371    1.4733   10.8174 C   0  0  0  0  0  0  0  0  0  0  0  0
    4.4566    0.0173   10.9591 O   0  0  0  0  0  0  0  0  0  0  0  0
    5.8545   -0.5816   12.1088 C   0  0  0  0  0  0  0  0  0  0  0  0
    7.4277   -0.5151   12.2301 C   0  0  0  0  0  0  0  0  0  0  0  0
    8.7585    0.5958   13.5045 S   0  0  0  0  0  0  0  0  0  0  0  0
   10.5196    0.2008   13.5427 C   0  0  0  0  0  0  0  0  0  0  0  0
    8.3573    0.2993   14.8687 O   0  0  0  0  0  0  0  0  0  0  0  0
    8.8445    1.9883   13.0855 O   0  0  0  0  0  0  0  0  0  0  0  0
    3.5636    2.1559    9.5342 C   0  0  0  0  0  0  0  0  0  0  0  0
    1.1262    5.2697    6.2744 C   0  0  0  0  0  0  0  0  0  0  0  0
    0.9234    4.1510    5.2565 C   0  0  0  0  0  0  0  0  0  0  0  0
    0.2755    4.6031    3.9529 C   0  0  0  0  0  0  0  0  0  0  0  0
   -1.1003    5.2313    4.1999 C   0  0  0  0  0  0  0  0  0  0  0  0
   -1.2446    5.8388    5.5308 N   0  0  0  0  0  0  0  0  0  0  0  0
    0.0438    6.3630    6.0122 C   0  0  0  0  0  0  0  0  0  0  0  0
   -0.0209    4.3667    9.4571 H   0  0  0  0  0  0  0  0  0  0  0  0
   -0.8240    4.1170    7.8981 H   0  0  0  0  0  0  0  0  0  0  0  0
   -0.5858    5.7270    8.5497 H   0  0  0  0  0  0  0  0  0  0  0  0
    1.7742    5.6513    8.2726 H   0  0  0  0  0  0  0  0  0  0  0  0
    2.7105    3.3384    7.2882 H   0  0  0  0  0  0  0  0  0  0  0  0
    1.7983    4.9062   10.4718 H   0  0  0  0  0  0  0  0  0  0  0  0
    2.2436    3.9176   12.6472 H   0  0  0  0  0  0  0  0  0  0  0  0
    3.0639    1.6569   12.8477 H   0  0  0  0  0  0  0  0  0  0  0  0
    5.8136   -1.6863   12.0180 H   0  0  0  0  0  0  0  0  0  0  0  0
    5.5433   -0.4127   13.0845 H   0  0  0  0  0  0  0  0  0  0  0  0
    7.5290   -1.4629   12.7923 H   0  0  0  0  0  0  0  0  0  0  0  0
    7.7013   -0.5497   11.2146 H   0  0  0  0  0  0  0  0  0  0  0  0
   10.9854    0.9327   14.2122 H   0  0  0  0  0  0  0  0  0  0  0  0
   10.9582    0.3339   12.5548 H   0  0  0  0  0  0  0  0  0  0  0  0
   10.6971   -0.7856   13.9763 H   0  0  0  0  0  0  0  0  0  0  0  0
    4.1189    1.8162    8.6685 H   0  0  0  0  0  0  0  0  0  0  0  0
    2.0951    5.7304    6.0311 H   0  0  0  0  0  0  0  0  0  0  0  0
    1.8625    3.6233    5.0686 H   0  0  0  0  0  0  0  0  0  0  0  0
    0.2209    3.4812    5.6952 H   0  0  0  0  0  0  0  0  0  0  0  0
    0.9324    5.3321    3.4623 H   0  0  0  0  0  0  0  0  0  0  0  0
    0.1715    3.7539    3.2683 H   0  0  0  0  0  0  0  0  0  0  0  0
   -1.8875    4.4816    4.0639 H   0  0  0  0  0  0  0  0  0  0  0  0
   -1.2840    5.9963    3.4363 H   0  0  0  0  0  0  0  0  0  0  0  0
   -1.5562    5.0884    6.1570 H   0  0  0  0  0  0  0  0  0  0  0  0
   -0.1156    6.9807    6.9016 H   0  0  0  0  0  0  0  0  0  0  0  0
    0.4288    7.0683    5.2622 H   0  0  0  0  0  0  0  0  0  0  0  0
  1  2  1  0
  2  3  1  0
  3  4  1  0
  4  5  2  0
  5  6  1  0
  6  7  2  0
  7  8  1  0
  8  9  1  0
  9 10  1  0
 10 11  1  0
 11 12  1  0
 12 13  1  0
 12 14  2  0
 12 15  2  0
  8 16  2  0
  2 17  1  0
 17 18  1  0
 18 19  1  0
 19 20  1  0
 20 21  1  0
 21 22  1  0
 16  4  1  0
 22 17  1  0
  1 23  1  0
  1 24  1  0
  1 25  1  0
  2 26  1  0
  3 27  1  0
  5 28  1  0
  6 29  1  0
  7 30  1  0
 10 31  1  0
 10 32  1  0
 11 33  1  0
 11 34  1  0
 13 35  1  0
 13 36  1  0
 13 37  1  0
 16 38  1  0
 17 39  1  0
 18 40  1  0
 18 41  1  0
 19 42  1  0
 19 43  1  0
 20 44  1  0
 20 45  1  0
 21 46  1  0
 22 47  1  0
 22 48  1  0
M  END
>  <Energy>  (566) 
247.60786955371194

>  <compound_id>  (566) 
62236

>  <target_id>  (566) 
1

>  <reference_id>  (566) 
95

>  <inspiration_ids>  (566) 
[111, 95]

>  <energy_score>  (566) 
177.51891197404473

>  <distance_score>  (566) 
10.02822794305545

>  <path>  (566) 
/opt/xchem-fragalysis-2/maxwin/BulkDock/SCRATCH/511021/C62236-P95/C62236-P95.minimised.mol

>  <scratch_subdir>  (566) 
/opt/xchem-fragalysis-2/maxwin/BulkDock/SCRATCH/511021/C62236-P95

>  <fragmenstein_runtime>  (566) 
37.80834197998047

>  <fragmenstein_outcome>  (566) 
too moved

>  <fragmenstein_mode>  (566) 
expansion

>  <fragmenstein_error>  (566) 


$$$$
C62246-P111
     RDKit          3D

 42 44  0  0  0  0  0  0  0  0999 V2000
   -8.1931   -0.9429    7.6451 C   0  0  0  0  0  0  0  0  0  0  0  0
   -6.5759   -1.0022    6.9359 S   0  0  0  0  0  0  0  0  0  0  0  0
   -6.5406   -0.0445    5.8479 O   0  0  0  0  0  0  0  0  0  0  0  0
   -6.2404   -2.3974    6.7329 O   0  0  0  0  0  0  0  0  0  0  0  0
   -5.5182   -0.3624    8.2001 C   0  0  0  0  0  0  0  0  0  0  0  0
   -4.0937   -0.8609    8.0423 C   0  0  0  0  0  0  0  0  0  0  0  0
   -3.2121   -0.1734    8.9338 O   0  0  0  0  0  0  0  0  0  0  0  0
   -1.9919   -0.7089    9.0939 C   0  0  0  0  0  0  0  0  0  0  0  0
   -1.3138   -1.6596    8.4554 C   0  0  0  0  0  0  0  0  0  0  0  0
    0.5698   -2.1942    9.0106 C   0  0  0  0  0  0  0  0  0  0  0  0
    1.3686   -1.8302   10.2190 C   0  0  0  0  0  0  0  0  0  0  0  0
    2.8808   -2.1419   11.2004 N   0  0  0  0  0  0  0  0  0  0  0  0
    4.3045   -1.0054   11.4913 C   0  0  0  0  0  0  0  0  0  0  0  0
    4.3261    0.1166   11.1157 O   0  0  0  0  0  0  0  0  0  0  0  0
    6.0220   -1.4246   12.4972 C   0  0  0  0  0  0  0  0  0  0  0  0
    7.1963   -0.9616   11.8381 C   0  0  0  0  0  0  0  0  0  0  0  0
    8.0824   -0.2472   12.8787 N   0  0  0  0  0  0  0  0  0  0  0  0
    8.0371   -0.9138   14.1726 C   0  0  0  0  0  0  0  0  0  0  0  0
    6.6329   -1.2822   14.0698 C   0  0  0  0  0  0  0  0  0  0  0  0
    6.3097   -2.5722   13.6715 C   0  0  0  0  0  0  0  0  0  0  0  0
    0.4868   -0.9470   10.7067 C   0  0  0  0  0  0  0  0  0  0  0  0
   -1.0745   -0.5462   10.2329 C   0  0  0  0  0  0  0  0  0  0  0  0
   -8.3893    0.0702    8.0001 H   0  0  0  0  0  0  0  0  0  0  0  0
   -8.9148   -1.2122    6.8709 H   0  0  0  0  0  0  0  0  0  0  0  0
   -8.2477   -1.6610    8.4616 H   0  0  0  0  0  0  0  0  0  0  0  0
   -5.9393   -0.6491    9.1587 H   0  0  0  0  0  0  0  0  0  0  0  0
   -5.5636    0.7279    8.1391 H   0  0  0  0  0  0  0  0  0  0  0  0
   -3.7429   -0.6384    7.0470 H   0  0  0  0  0  0  0  0  0  0  0  0
   -4.0352   -1.9395    8.1689 H   0  0  0  0  0  0  0  0  0  0  0  0
   -1.7453   -1.8641    7.4935 H   0  0  0  0  0  0  0  0  0  0  0  0
    1.2243   -2.7406    8.2984 H   0  0  0  0  0  0  0  0  0  0  0  0
    3.1202   -3.0746   11.5337 H   0  0  0  0  0  0  0  0  0  0  0  0
    7.0205   -0.4854   10.8902 H   0  0  0  0  0  0  0  0  0  0  0  0
    7.5082   -1.9217   11.5126 H   0  0  0  0  0  0  0  0  0  0  0  0
    9.0531   -0.4056   12.6567 H   0  0  0  0  0  0  0  0  0  0  0  0
    8.6542   -1.7900   14.4203 H   0  0  0  0  0  0  0  0  0  0  0  0
    8.3699   -0.2417   14.9729 H   0  0  0  0  0  0  0  0  0  0  0  0
    6.4951   -1.4901   15.1033 H   0  0  0  0  0  0  0  0  0  0  0  0
    7.2606   -3.0423   13.8956 H   0  0  0  0  0  0  0  0  0  0  0  0
    5.5760   -2.9775   14.3635 H   0  0  0  0  0  0  0  0  0  0  0  0
    0.7274   -0.6587   11.7505 H   0  0  0  0  0  0  0  0  0  0  0  0
   -1.4870   -0.1809   11.2096 H   0  0  0  0  0  0  0  0  0  0  0  0
  1  2  1  0
  2  3  2  0
  2  4  2  0
  2  5  1  0
  5  6  1  0
  6  7  1  0
  7  8  1  0
  8  9  2  0
  9 10  1  0
 10 11  2  0
 11 12  1  0
 12 13  1  0
 13 14  2  0
 13 15  1  0
 15 16  1  0
 16 17  1  0
 17 18  1  0
 18 19  1  0
 19 20  1  0
 11 21  1  0
 21 22  2  0
 22  8  1  0
 19 15  1  0
 20 15  1  0
  1 23  1  0
  1 24  1  0
  1 25  1  0
  5 26  1  0
  5 27  1  0
  6 28  1  0
  6 29  1  0
  9 30  1  0
 10 31  1  0
 12 32  1  0
 16 33  1  0
 16 34  1  0
 17 35  1  0
 18 36  1  0
 18 37  1  0
 19 38  1  0
 20 39  1  0
 20 40  1  0
 21 41  1  0
 22 42  1  0
M  END
>  <Energy>  (567) 
518.76801456423186

>  <compound_id>  (567) 
62246

>  <target_id>  (567) 
1

>  <reference_id>  (567) 
111

>  <inspiration_ids>  (567) 
[111, 95]

>  <energy_score>  (567) 
480.26877603921804

>  <distance_score>  (567) 
7.601245920054614

>  <path>  (567) 
/opt/xchem-fragalysis-2/maxwin/BulkDock/SCRATCH/511021/C62246-P111/C62246-P111.minimised.mol

>  <scratch_subdir>  (567) 
/opt/xchem-fragalysis-2/maxwin/BulkDock/SCRATCH/511021/C62246-P111

>  <fragmenstein_runtime>  (567) 
87.21893167495728

>  <fragmenstein_outcome>  (567) 
too moved

>  <fragmenstein_mode>  (567) 
expansion

>  <fragmenstein_error>  (567) 


$$$$
C62246-P95
     RDKit          3D

 42 44  0  0  0  0  0  0  0  0999 V2000
   -8.5662   -0.2419    7.1753 C   0  0  0  0  0  0  0  0  0  0  0  0
   -6.8671   -0.5583    6.8061 S   0  0  0  0  0  0  0  0  0  0  0  0
   -6.2680    0.7040    6.4124 O   0  0  0  0  0  0  0  0  0  0  0  0
   -6.3340   -1.3156    7.9195 O   0  0  0  0  0  0  0  0  0  0  0  0
   -6.9833   -1.6287    5.3859 C   0  0  0  0  0  0  0  0  0  0  0  0
   -5.6749   -2.3338    5.0902 C   0  0  0  0  0  0  0  0  0  0  0  0
   -4.7397   -1.4235    4.4928 O   0  0  0  0  0  0  0  0  0  0  0  0
   -3.4778   -1.4102    5.0417 C   0  0  0  0  0  0  0  0  0  0  0  0
   -2.3749   -1.1794    4.1258 C   0  0  0  0  0  0  0  0  0  0  0  0
   -0.8924   -1.2388    4.5774 C   0  0  0  0  0  0  0  0  0  0  0  0
   -0.4226   -1.5729    6.3354 C   0  0  0  0  0  0  0  0  0  0  0  0
    1.1808   -1.8584    7.4752 N   0  0  0  0  0  0  0  0  0  0  0  0
    1.4814   -1.5376    9.3877 C   0  0  0  0  0  0  0  0  0  0  0  0
    0.5557   -1.1882   10.0165 O   0  0  0  0  0  0  0  0  0  0  0  0
    3.1055   -1.8752   10.6833 C   0  0  0  0  0  0  0  0  0  0  0  0
    4.1828   -0.2185   10.9720 C   0  0  0  0  0  0  0  0  0  0  0  0
    5.6716   -0.6604   12.0233 N   0  0  0  0  0  0  0  0  0  0  0  0
    5.8137   -2.0993   12.0612 C   0  0  0  0  0  0  0  0  0  0  0  0
    4.3524   -2.9760   11.3826 C   0  0  0  0  0  0  0  0  0  0  0  0
    3.2336   -3.1614   12.1910 C   0  0  0  0  0  0  0  0  0  0  0  0
   -1.9430   -1.5530    7.0774 C   0  0  0  0  0  0  0  0  0  0  0  0
   -3.2612   -1.5380    6.4547 C   0  0  0  0  0  0  0  0  0  0  0  0
   -8.6101    0.4244    8.0396 H   0  0  0  0  0  0  0  0  0  0  0  0
   -9.0334    0.2368    6.3127 H   0  0  0  0  0  0  0  0  0  0  0  0
   -9.0627   -1.1855    7.4098 H   0  0  0  0  0  0  0  0  0  0  0  0
   -7.3097   -1.0111    4.5438 H   0  0  0  0  0  0  0  0  0  0  0  0
   -7.7530   -2.3727    5.6144 H   0  0  0  0  0  0  0  0  0  0  0  0
   -5.2975   -2.8782    5.9615 H   0  0  0  0  0  0  0  0  0  0  0  0
   -5.8676   -3.0980    4.3271 H   0  0  0  0  0  0  0  0  0  0  0  0
   -2.5914   -0.9373    3.0852 H   0  0  0  0  0  0  0  0  0  0  0  0
   -0.1482   -1.1697    3.7670 H   0  0  0  0  0  0  0  0  0  0  0  0
    2.0297   -2.2332    7.0685 H   0  0  0  0  0  0  0  0  0  0  0  0
    4.5937    0.2851   10.0988 H   0  0  0  0  0  0  0  0  0  0  0  0
    3.4692    0.6433   11.2330 H   0  0  0  0  0  0  0  0  0  0  0  0
    6.3859   -0.2808   11.4036 H   0  0  0  0  0  0  0  0  0  0  0  0
    6.0372   -2.3155   13.1349 H   0  0  0  0  0  0  0  0  0  0  0  0
    6.6824   -2.1461   11.3844 H   0  0  0  0  0  0  0  0  0  0  0  0
    4.5438   -3.9411   10.9403 H   0  0  0  0  0  0  0  0  0  0  0  0
    3.0376   -4.2606   12.2885 H   0  0  0  0  0  0  0  0  0  0  0  0
    3.1513   -3.0116   13.2390 H   0  0  0  0  0  0  0  0  0  0  0  0
   -2.0179   -1.5288    8.1769 H   0  0  0  0  0  0  0  0  0  0  0  0
   -4.0945   -1.5639    7.1489 H   0  0  0  0  0  0  0  0  0  0  0  0
  1  2  1  0
  2  3  2  0
  2  4  2  0
  2  5  1  0
  5  6  1  0
  6  7  1  0
  7  8  1  0
  8  9  2  0
  9 10  1  0
 10 11  2  0
 11 12  1  0
 12 13  1  0
 13 14  2  0
 13 15  1  0
 15 16  1  0
 16 17  1  0
 17 18  1  0
 18 19  1  0
 19 20  1  0
 11 21  1  0
 21 22  2  0
 22  8  1  0
 19 15  1  0
 20 15  1  0
  1 23  1  0
  1 24  1  0
  1 25  1  0
  5 26  1  0
  5 27  1  0
  6 28  1  0
  6 29  1  0
  9 30  1  0
 10 31  1  0
 12 32  1  0
 16 33  1  0
 16 34  1  0
 17 35  1  0
 18 36  1  0
 18 37  1  0
 19 38  1  0
 20 39  1  0
 20 40  1  0
 21 41  1  0
 22 42  1  0
M  END
>  <Energy>  (568) 
696.8685542206473

>  <compound_id>  (568) 
62246

>  <target_id>  (568) 
1

>  <reference_id>  (568) 
95

>  <inspiration_ids>  (568) 
[111, 95]

>  <energy_score>  (568) 
658.3693156956338

>  <distance_score>  (568) 
7.802363649796134

>  <path>  (568) 
/opt/xchem-fragalysis-2/maxwin/BulkDock/SCRATCH/511021/C62246-P95/C62246-P95.minimised.mol

>  <scratch_subdir>  (568) 
/opt/xchem-fragalysis-2/maxwin/BulkDock/SCRATCH/511021/C62246-P95

>  <fragmenstein_runtime>  (568) 
67.69197821617126

>  <fragmenstein_outcome>  (568) 
too moved

>  <fragmenstein_mode>  (568) 
expansion

>  <fragmenstein_error>  (568) 


$$$$
C62247-P111
     RDKit          3D

 34 35  0  0  0  0  0  0  0  0999 V2000
    9.8388    5.9971    9.7044 O   0  0  0  0  0  0  0  0  0  0  0  0
    9.2990    4.7036   10.0777 S   0  0  0  0  0  0  0  0  0  0  0  0
    8.6076    4.5664   11.3467 O   0  0  0  0  0  0  0  0  0  0  0  0
   10.6946    3.5414   10.1134 C   0  0  0  0  0  0  0  0  0  0  0  0
   11.3593    3.4167   11.4967 C   0  0  0  0  0  0  0  0  0  0  0  0
   12.3018    2.3285   11.4733 O   0  0  0  0  0  0  0  0  0  0  0  0
   12.3838    1.4750   12.5414 C   0  0  0  0  0  0  0  0  0  0  0  0
   11.3155    1.0402   13.3214 C   0  0  0  0  0  0  0  0  0  0  0  0
   11.5067    0.0666   14.3142 C   0  0  0  0  0  0  0  0  0  0  0  0
   12.7658   -0.4835   14.5347 C   0  0  0  0  0  0  0  0  0  0  0  0
   13.8369   -0.0605   13.7550 C   0  0  0  0  0  0  0  0  0  0  0  0
   13.6428    0.9074   12.7616 C   0  0  0  0  0  0  0  0  0  0  0  0
    8.1691    4.1566    8.7220 C   0  0  0  0  0  0  0  0  0  0  0  0
    6.6643    4.4798    8.9238 C   0  0  0  0  0  0  0  0  0  0  0  0
    5.6255    3.4378    9.4598 C   0  0  0  0  0  0  0  0  0  0  0  0
    4.6290    3.9895    8.5106 N   0  0  0  0  0  0  0  0  0  0  0  0
    5.7614    4.3889    7.6449 C   0  0  0  0  0  0  0  0  0  0  0  0
   11.4170    3.8616    9.3560 H   0  0  0  0  0  0  0  0  0  0  0  0
   10.3190    2.5701    9.8016 H   0  0  0  0  0  0  0  0  0  0  0  0
   10.6194    3.3125   12.2923 H   0  0  0  0  0  0  0  0  0  0  0  0
   11.9194    4.3342   11.7104 H   0  0  0  0  0  0  0  0  0  0  0  0
   10.3016    1.3756   13.1414 H   0  0  0  0  0  0  0  0  0  0  0  0
   10.6478   -0.2960   14.8733 H   0  0  0  0  0  0  0  0  0  0  0  0
   12.9053   -1.2540   15.2873 H   0  0  0  0  0  0  0  0  0  0  0  0
   14.8231   -0.4929   13.9030 H   0  0  0  0  0  0  0  0  0  0  0  0
   14.4837    1.2108   12.1423 H   0  0  0  0  0  0  0  0  0  0  0  0
    8.5394    4.6766    7.8308 H   0  0  0  0  0  0  0  0  0  0  0  0
    8.3173    3.0913    8.5574 H   0  0  0  0  0  0  0  0  0  0  0  0
    6.5594    5.4634    9.4071 H   0  0  0  0  0  0  0  0  0  0  0  0
    5.3506    3.5477   10.5113 H   0  0  0  0  0  0  0  0  0  0  0  0
    5.8671    2.3931    9.2418 H   0  0  0  0  0  0  0  0  0  0  0  0
    4.1051    4.7790    8.8871 H   0  0  0  0  0  0  0  0  0  0  0  0
    5.6172    5.3286    7.1039 H   0  0  0  0  0  0  0  0  0  0  0  0
    6.0563    3.6136    6.9268 H   0  0  0  0  0  0  0  0  0  0  0  0
  1  2  2  0
  2  3  2  0
  2  4  1  0
  4  5  1  0
  5  6  1  0
  6  7  1  0
  7  8  2  0
  8  9  1  0
  9 10  2  0
 10 11  1  0
 11 12  2  0
  2 13  1  0
 13 14  1  0
 14 15  1  0
 15 16  1  0
 16 17  1  0
 12  7  1  0
 17 14  1  0
  4 18  1  0
  4 19  1  0
  5 20  1  0
  5 21  1  0
  8 22  1  0
  9 23  1  0
 10 24  1  0
 11 25  1  0
 12 26  1  0
 13 27  1  0
 13 28  1  0
 14 29  1  0
 15 30  1  0
 15 31  1  0
 16 32  1  0
 17 33  1  0
 17 34  1  0
M  END
>  <Energy>  (569) 
20.998408219740231

>  <compound_id>  (569) 
62247

>  <target_id>  (569) 
1

>  <reference_id>  (569) 
111

>  <inspiration_ids>  (569) 
[111, 95]

>  <energy_score>  (569) 
-18.37632767817132

>  <distance_score>  (569) 
9.609807565111492

>  <path>  (569) 
/opt/xchem-fragalysis-2/maxwin/BulkDock/SCRATCH/511021/C62247-P111/C62247-P111.minimised.mol

>  <scratch_subdir>  (569) 
/opt/xchem-fragalysis-2/maxwin/BulkDock/SCRATCH/511021/C62247-P111

>  <fragmenstein_runtime>  (569) 
25.131304025650024

>  <fragmenstein_outcome>  (569) 
too moved

>  <fragmenstein_mode>  (569) 
expansion

>  <fragmenstein_error>  (569) 


$$$$
C62247-P95
     RDKit          3D

 34 35  0  0  0  0  0  0  0  0999 V2000
   11.2954   -4.1591    7.3041 O   0  0  0  0  0  0  0  0  0  0  0  0
   11.1313   -5.5418    7.7026 S   0  0  0  0  0  0  0  0  0  0  0  0
   11.4513   -6.5793    6.7313 O   0  0  0  0  0  0  0  0  0  0  0  0
   12.1636   -5.9170    9.1715 C   0  0  0  0  0  0  0  0  0  0  0  0
   12.9824   -4.8150    9.8754 C   0  0  0  0  0  0  0  0  0  0  0  0
   12.4413   -4.3045   11.1956 O   0  0  0  0  0  0  0  0  0  0  0  0
   13.0236   -3.3829   12.2808 C   0  0  0  0  0  0  0  0  0  0  0  0
   12.2899   -3.2784   13.4776 C   0  0  0  0  0  0  0  0  0  0  0  0
   12.7391   -2.4494   14.5059 C   0  0  0  0  0  0  0  0  0  0  0  0
   13.8874   -1.6817   14.3292 C   0  0  0  0  0  0  0  0  0  0  0  0
   14.5822   -1.7263   13.1182 C   0  0  0  0  0  0  0  0  0  0  0  0
   14.1527   -2.5612   12.0839 C   0  0  0  0  0  0  0  0  0  0  0  0
    9.3829   -5.8029    8.0964 C   0  0  0  0  0  0  0  0  0  0  0  0
    8.4013   -5.8875    6.9146 C   0  0  0  0  0  0  0  0  0  0  0  0
    8.1362   -4.6356    6.0641 C   0  0  0  0  0  0  0  0  0  0  0  0
    6.6798   -4.9175    6.1067 N   0  0  0  0  0  0  0  0  0  0  0  0
    6.8938   -5.7596    7.2990 C   0  0  0  0  0  0  0  0  0  0  0  0
   11.6535   -6.6069    9.8343 H   0  0  0  0  0  0  0  0  0  0  0  0
   12.9262   -6.5627    8.7051 H   0  0  0  0  0  0  0  0  0  0  0  0
   13.9487   -5.2831   10.0074 H   0  0  0  0  0  0  0  0  0  0  0  0
   13.2397   -4.0612    9.1532 H   0  0  0  0  0  0  0  0  0  0  0  0
   11.3858   -3.8522   13.6340 H   0  0  0  0  0  0  0  0  0  0  0  0
   12.1877   -2.4035   15.4406 H   0  0  0  0  0  0  0  0  0  0  0  0
   14.2339   -1.0330   15.1298 H   0  0  0  0  0  0  0  0  0  0  0  0
   15.4615   -1.1022   12.9800 H   0  0  0  0  0  0  0  0  0  0  0  0
   14.6924   -2.5640   11.1441 H   0  0  0  0  0  0  0  0  0  0  0  0
    9.3284   -6.7474    8.6451 H   0  0  0  0  0  0  0  0  0  0  0  0
    9.0842   -4.9649    8.7171 H   0  0  0  0  0  0  0  0  0  0  0  0
    8.5977   -6.7751    6.2966 H   0  0  0  0  0  0  0  0  0  0  0  0
    8.5717   -4.6507    5.0603 H   0  0  0  0  0  0  0  0  0  0  0  0
    8.4401   -3.7054    6.5543 H   0  0  0  0  0  0  0  0  0  0  0  0
    6.3706   -5.4482    5.2901 H   0  0  0  0  0  0  0  0  0  0  0  0
    6.6976   -5.2284    8.2380 H   0  0  0  0  0  0  0  0  0  0  0  0
    6.3310   -6.6976    7.3057 H   0  0  0  0  0  0  0  0  0  0  0  0
  1  2  2  0
  2  3  2  0
  2  4  1  0
  4  5  1  0
  5  6  1  0
  6  7  1  0
  7  8  2  0
  8  9  1  0
  9 10  2  0
 10 11  1  0
 11 12  2  0
  2 13  1  0
 13 14  1  0
 14 15  1  0
 15 16  1  0
 16 17  1  0
 12  7  1  0
 17 14  1  0
  4 18  1  0
  4 19  1  0
  5 20  1  0
  5 21  1  0
  8 22  1  0
  9 23  1  0
 10 24  1  0
 11 25  1  0
 12 26  1  0
 13 27  1  0
 13 28  1  0
 14 29  1  0
 15 30  1  0
 15 31  1  0
 16 32  1  0
 17 33  1  0
 17 34  1  0
M  END
>  <Energy>  (570) 
54.946479070864029

>  <compound_id>  (570) 
62247

>  <target_id>  (570) 
1

>  <reference_id>  (570) 
95

>  <inspiration_ids>  (570) 
[111, 95]

>  <energy_score>  (570) 
15.571743172950562

>  <distance_score>  (570) 
10.427659889095244

>  <path>  (570) 
/opt/xchem-fragalysis-2/maxwin/BulkDock/SCRATCH/511021/C62247-P95/C62247-P95.minimised.mol

>  <scratch_subdir>  (570) 
/opt/xchem-fragalysis-2/maxwin/BulkDock/SCRATCH/511021/C62247-P95

>  <fragmenstein_runtime>  (570) 
21.595897436141968

>  <fragmenstein_outcome>  (570) 
too moved

>  <fragmenstein_mode>  (570) 
expansion

>  <fragmenstein_error>  (570) 


$$$$
C62236-P111
     RDKit          3D

 48 49  0  0  0  0  0  0  0  0999 V2000
   -5.2552    0.9283    7.6583 C   0  0  0  0  0  0  0  0  0  0  0  0
   -4.6422   -0.3527    8.2652 C   0  0  0  0  0  0  0  0  0  0  0  0
   -3.0933   -0.2988    9.0436 N   0  0  0  0  0  0  0  0  0  0  0  0
   -1.6422   -0.9913    8.9648 C   0  0  0  0  0  0  0  0  0  0  0  0
   -1.5724   -1.2995    7.4755 C   0  0  0  0  0  0  0  0  0  0  0  0
    0.0313   -1.5154    6.7021 C   0  0  0  0  0  0  0  0  0  0  0  0
    1.3925   -1.8454    7.9673 C   0  0  0  0  0  0  0  0  0  0  0  0
    1.3263   -1.3913    9.7759 C   0  0  0  0  0  0  0  0  0  0  0  0
    2.3041   -0.7974   11.2463 O   0  0  0  0  0  0  0  0  0  0  0  0
    4.2212   -0.3707   11.2055 C   0  0  0  0  0  0  0  0  0  0  0  0
    5.9891   -0.8511   12.1736 C   0  0  0  0  0  0  0  0  0  0  0  0
    6.8150   -1.1371   14.0484 S   0  0  0  0  0  0  0  0  0  0  0  0
    8.4442   -0.3777   14.3470 C   0  0  0  0  0  0  0  0  0  0  0  0
    7.1061   -2.5629   14.1670 O   0  0  0  0  0  0  0  0  0  0  0  0
    6.0451   -0.5109   15.1049 O   0  0  0  0  0  0  0  0  0  0  0  0
   -0.0251   -1.0573   10.1056 C   0  0  0  0  0  0  0  0  0  0  0  0
   -5.6969   -1.4988    7.9035 C   0  0  0  0  0  0  0  0  0  0  0  0
   -7.1405   -1.0422    7.4299 C   0  0  0  0  0  0  0  0  0  0  0  0
   -8.1225   -2.2094    7.2978 C   0  0  0  0  0  0  0  0  0  0  0  0
   -7.5991   -3.3084    6.3925 C   0  0  0  0  0  0  0  0  0  0  0  0
   -6.2205   -3.0668    5.9877 N   0  0  0  0  0  0  0  0  0  0  0  0
   -5.3367   -2.7495    7.1072 C   0  0  0  0  0  0  0  0  0  0  0  0
   -4.8602    1.8424    8.0698 H   0  0  0  0  0  0  0  0  0  0  0  0
   -5.2291    0.9141    6.5634 H   0  0  0  0  0  0  0  0  0  0  0  0
   -6.3030    1.0792    7.9304 H   0  0  0  0  0  0  0  0  0  0  0  0
   -5.0773   -0.1725    9.2541 H   0  0  0  0  0  0  0  0  0  0  0  0
   -3.3152   -0.5105   10.0073 H   0  0  0  0  0  0  0  0  0  0  0  0
   -2.4995   -1.0030    6.9893 H   0  0  0  0  0  0  0  0  0  0  0  0
    0.2349   -1.2434    5.6827 H   0  0  0  0  0  0  0  0  0  0  0  0
    2.3140   -1.8703    7.3862 H   0  0  0  0  0  0  0  0  0  0  0  0
    4.0236   -1.3775   11.5118 H   0  0  0  0  0  0  0  0  0  0  0  0
    3.9224    0.6636   11.4388 H   0  0  0  0  0  0  0  0  0  0  0  0
    6.8385   -0.7148   11.4831 H   0  0  0  0  0  0  0  0  0  0  0  0
    6.1005   -1.9638   12.2328 H   0  0  0  0  0  0  0  0  0  0  0  0
    8.3552    0.3346   15.1754 H   0  0  0  0  0  0  0  0  0  0  0  0
    8.8188    0.1490   13.4733 H   0  0  0  0  0  0  0  0  0  0  0  0
    9.1306   -1.1433   14.7192 H   0  0  0  0  0  0  0  0  0  0  0  0
   -0.0811   -0.8445   11.1782 H   0  0  0  0  0  0  0  0  0  0  0  0
   -5.9921   -1.7836    8.8892 H   0  0  0  0  0  0  0  0  0  0  0  0
   -7.5858   -0.3650    8.1685 H   0  0  0  0  0  0  0  0  0  0  0  0
   -7.0818   -0.5196    6.4671 H   0  0  0  0  0  0  0  0  0  0  0  0
   -8.3248   -2.6255    8.2905 H   0  0  0  0  0  0  0  0  0  0  0  0
   -9.0808   -1.8360    6.9177 H   0  0  0  0  0  0  0  0  0  0  0  0
   -8.2198   -3.3692    5.4916 H   0  0  0  0  0  0  0  0  0  0  0  0
   -7.6865   -4.2799    6.8941 H   0  0  0  0  0  0  0  0  0  0  0  0
   -5.8902   -3.8949    5.4955 H   0  0  0  0  0  0  0  0  0  0  0  0
   -4.2910   -2.7454    6.8538 H   0  0  0  0  0  0  0  0  0  0  0  0
   -5.4092   -3.6363    7.7017 H   0  0  0  0  0  0  0  0  0  0  0  0
  1  2  1  0
  2  3  1  0
  3  4  1  0
  4  5  2  0
  5  6  1  0
  6  7  2  0
  7  8  1  0
  8  9  1  0
  9 10  1  0
 10 11  1  0
 11 12  1  0
 12 13  1  0
 12 14  2  0
 12 15  2  0
  8 16  2  0
  2 17  1  0
 17 18  1  0
 18 19  1  0
 19 20  1  0
 20 21  1  0
 21 22  1  0
 16  4  1  0
 22 17  1  0
  1 23  1  0
  1 24  1  0
  1 25  1  0
  2 26  1  0
  3 27  1  0
  5 28  1  0
  6 29  1  0
  7 30  1  0
 10 31  1  0
 10 32  1  0
 11 33  1  0
 11 34  1  0
 13 35  1  0
 13 36  1  0
 13 37  1  0
 16 38  1  0
 17 39  1  0
 18 40  1  0
 18 41  1  0
 19 42  1  0
 19 43  1  0
 20 44  1  0
 20 45  1  0
 21 46  1  0
 22 47  1  0
 22 48  1  0
M  END
>  <Energy>  (571) 
838.5599062001769

>  <compound_id>  (571) 
62236

>  <target_id>  (571) 
1

>  <reference_id>  (571) 
111

>  <inspiration_ids>  (571) 
[111, 95]

>  <energy_score>  (571) 
768.4709486205089

>  <distance_score>  (571) 
7.2201974026961935

>  <path>  (571) 
/opt/xchem-fragalysis-2/maxwin/BulkDock/SCRATCH/511021/C62236-P111/C62236-P111.minimised.mol

>  <scratch_subdir>  (571) 
/opt/xchem-fragalysis-2/maxwin/BulkDock/SCRATCH/511021/C62236-P111

>  <fragmenstein_runtime>  (571) 
49.08574986457825

>  <fragmenstein_outcome>  (571) 
too moved

>  <fragmenstein_mode>  (571) 
expansion

>  <fragmenstein_error>  (571) 


$$$$
C62236-P95
     RDKit          3D

 48 49  0  0  0  0  0  0  0  0999 V2000
   -0.1267    4.7394    8.4450 C   0  0  0  0  0  0  0  0  0  0  0  0
    1.2436    4.8202    7.7869 C   0  0  0  0  0  0  0  0  0  0  0  0
    2.0820    3.5836    8.0524 N   0  0  0  0  0  0  0  0  0  0  0  0
    2.7025    3.3051    9.3215 C   0  0  0  0  0  0  0  0  0  0  0  0
    2.3589    3.9784   10.4926 C   0  0  0  0  0  0  0  0  0  0  0  0
    2.6187    3.4148   11.7572 C   0  0  0  0  0  0  0  0  0  0  0  0
    3.1827    2.1281   11.8973 C   0  0  0  0  0  0  0  0  0  0  0  0
    3.7371    1.4733   10.8174 C   0  0  0  0  0  0  0  0  0  0  0  0
    4.4566    0.0173   10.9591 O   0  0  0  0  0  0  0  0  0  0  0  0
    5.8545   -0.5816   12.1088 C   0  0  0  0  0  0  0  0  0  0  0  0
    7.4277   -0.5151   12.2301 C   0  0  0  0  0  0  0  0  0  0  0  0
    8.7585    0.5958   13.5045 S   0  0  0  0  0  0  0  0  0  0  0  0
   10.5196    0.2008   13.5427 C   0  0  0  0  0  0  0  0  0  0  0  0
    8.3573    0.2993   14.8687 O   0  0  0  0  0  0  0  0  0  0  0  0
    8.8445    1.9883   13.0855 O   0  0  0  0  0  0  0  0  0  0  0  0
    3.5636    2.1559    9.5342 C   0  0  0  0  0  0  0  0  0  0  0  0
    1.1262    5.2697    6.2744 C   0  0  0  0  0  0  0  0  0  0  0  0
    0.9234    4.1510    5.2565 C   0  0  0  0  0  0  0  0  0  0  0  0
    0.2755    4.6031    3.9529 C   0  0  0  0  0  0  0  0  0  0  0  0
   -1.1003    5.2313    4.1999 C   0  0  0  0  0  0  0  0  0  0  0  0
   -1.2446    5.8388    5.5308 N   0  0  0  0  0  0  0  0  0  0  0  0
    0.0438    6.3630    6.0122 C   0  0  0  0  0  0  0  0  0  0  0  0
   -0.0209    4.3667    9.4571 H   0  0  0  0  0  0  0  0  0  0  0  0
   -0.8240    4.1170    7.8981 H   0  0  0  0  0  0  0  0  0  0  0  0
   -0.5858    5.7270    8.5497 H   0  0  0  0  0  0  0  0  0  0  0  0
    1.7742    5.6513    8.2726 H   0  0  0  0  0  0  0  0  0  0  0  0
    2.7105    3.3384    7.2882 H   0  0  0  0  0  0  0  0  0  0  0  0
    1.7983    4.9062   10.4718 H   0  0  0  0  0  0  0  0  0  0  0  0
    2.2436    3.9176   12.6472 H   0  0  0  0  0  0  0  0  0  0  0  0
    3.0639    1.6569   12.8477 H   0  0  0  0  0  0  0  0  0  0  0  0
    5.8136   -1.6863   12.0180 H   0  0  0  0  0  0  0  0  0  0  0  0
    5.5433   -0.4127   13.0845 H   0  0  0  0  0  0  0  0  0  0  0  0
    7.5290   -1.4629   12.7923 H   0  0  0  0  0  0  0  0  0  0  0  0
    7.7013   -0.5497   11.2146 H   0  0  0  0  0  0  0  0  0  0  0  0
   10.9854    0.9327   14.2122 H   0  0  0  0  0  0  0  0  0  0  0  0
   10.9582    0.3339   12.5548 H   0  0  0  0  0  0  0  0  0  0  0  0
   10.6971   -0.7856   13.9763 H   0  0  0  0  0  0  0  0  0  0  0  0
    4.1189    1.8162    8.6685 H   0  0  0  0  0  0  0  0  0  0  0  0
    2.0951    5.7304    6.0311 H   0  0  0  0  0  0  0  0  0  0  0  0
    1.8625    3.6233    5.0686 H   0  0  0  0  0  0  0  0  0  0  0  0
    0.2209    3.4812    5.6952 H   0  0  0  0  0  0  0  0  0  0  0  0
    0.9324    5.3321    3.4623 H   0  0  0  0  0  0  0  0  0  0  0  0
    0.1715    3.7539    3.2683 H   0  0  0  0  0  0  0  0  0  0  0  0
   -1.8875    4.4816    4.0639 H   0  0  0  0  0  0  0  0  0  0  0  0
   -1.2840    5.9963    3.4363 H   0  0  0  0  0  0  0  0  0  0  0  0
   -1.5562    5.0884    6.1570 H   0  0  0  0  0  0  0  0  0  0  0  0
   -0.1156    6.9807    6.9016 H   0  0  0  0  0  0  0  0  0  0  0  0
    0.4288    7.0683    5.2622 H   0  0  0  0  0  0  0  0  0  0  0  0
  1  2  1  0
  2  3  1  0
  3  4  1  0
  4  5  2  0
  5  6  1  0
  6  7  2  0
  7  8  1  0
  8  9  1  0
  9 10  1  0
 10 11  1  0
 11 12  1  0
 12 13  1  0
 12 14  2  0
 12 15  2  0
  8 16  2  0
  2 17  1  0
 17 18  1  0
 18 19  1  0
 19 20  1  0
 20 21  1  0
 21 22  1  0
 16  4  1  0
 22 17  1  0
  1 23  1  0
  1 24  1  0
  1 25  1  0
  2 26  1  0
  3 27  1  0
  5 28  1  0
  6 29  1  0
  7 30  1  0
 10 31  1  0
 10 32  1  0
 11 33  1  0
 11 34  1  0
 13 35  1  0
 13 36  1  0
 13 37  1  0
 16 38  1  0
 17 39  1  0
 18 40  1  0
 18 41  1  0
 19 42  1  0
 19 43  1  0
 20 44  1  0
 20 45  1  0
 21 46  1  0
 22 47  1  0
 22 48  1  0
M  END
>  <Energy>  (572) 
247.60786955371194

>  <compound_id>  (572) 
62236

>  <target_id>  (572) 
1

>  <reference_id>  (572) 
95

>  <inspiration_ids>  (572) 
[111, 95]

>  <energy_score>  (572) 
177.51891197404473

>  <distance_score>  (572) 
10.02822794305545

>  <path>  (572) 
/opt/xchem-fragalysis-2/maxwin/BulkDock/SCRATCH/511021/C62236-P95/C62236-P95.minimised.mol

>  <scratch_subdir>  (572) 
/opt/xchem-fragalysis-2/maxwin/BulkDock/SCRATCH/511021/C62236-P95

>  <fragmenstein_runtime>  (572) 
49.89388823509216

>  <fragmenstein_outcome>  (572) 
too moved

>  <fragmenstein_mode>  (572) 
expansion

>  <fragmenstein_error>  (572) 


$$$$
C62246-P111
     RDKit          3D

 42 44  0  0  0  0  0  0  0  0999 V2000
   -8.1931   -0.9429    7.6451 C   0  0  0  0  0  0  0  0  0  0  0  0
   -6.5759   -1.0022    6.9359 S   0  0  0  0  0  0  0  0  0  0  0  0
   -6.5406   -0.0445    5.8479 O   0  0  0  0  0  0  0  0  0  0  0  0
   -6.2404   -2.3974    6.7329 O   0  0  0  0  0  0  0  0  0  0  0  0
   -5.5182   -0.3624    8.2001 C   0  0  0  0  0  0  0  0  0  0  0  0
   -4.0937   -0.8609    8.0423 C   0  0  0  0  0  0  0  0  0  0  0  0
   -3.2121   -0.1734    8.9338 O   0  0  0  0  0  0  0  0  0  0  0  0
   -1.9919   -0.7089    9.0939 C   0  0  0  0  0  0  0  0  0  0  0  0
   -1.3138   -1.6596    8.4554 C   0  0  0  0  0  0  0  0  0  0  0  0
    0.5698   -2.1942    9.0106 C   0  0  0  0  0  0  0  0  0  0  0  0
    1.3686   -1.8302   10.2190 C   0  0  0  0  0  0  0  0  0  0  0  0
    2.8808   -2.1419   11.2004 N   0  0  0  0  0  0  0  0  0  0  0  0
    4.3045   -1.0054   11.4913 C   0  0  0  0  0  0  0  0  0  0  0  0
    4.3261    0.1166   11.1157 O   0  0  0  0  0  0  0  0  0  0  0  0
    6.0220   -1.4246   12.4972 C   0  0  0  0  0  0  0  0  0  0  0  0
    7.1963   -0.9616   11.8381 C   0  0  0  0  0  0  0  0  0  0  0  0
    8.0824   -0.2472   12.8787 N   0  0  0  0  0  0  0  0  0  0  0  0
    8.0371   -0.9138   14.1726 C   0  0  0  0  0  0  0  0  0  0  0  0
    6.6329   -1.2822   14.0698 C   0  0  0  0  0  0  0  0  0  0  0  0
    6.3097   -2.5722   13.6715 C   0  0  0  0  0  0  0  0  0  0  0  0
    0.4868   -0.9470   10.7067 C   0  0  0  0  0  0  0  0  0  0  0  0
   -1.0745   -0.5462   10.2329 C   0  0  0  0  0  0  0  0  0  0  0  0
   -8.3893    0.0702    8.0001 H   0  0  0  0  0  0  0  0  0  0  0  0
   -8.9148   -1.2122    6.8709 H   0  0  0  0  0  0  0  0  0  0  0  0
   -8.2477   -1.6610    8.4616 H   0  0  0  0  0  0  0  0  0  0  0  0
   -5.9393   -0.6491    9.1587 H   0  0  0  0  0  0  0  0  0  0  0  0
   -5.5636    0.7279    8.1391 H   0  0  0  0  0  0  0  0  0  0  0  0
   -3.7429   -0.6384    7.0470 H   0  0  0  0  0  0  0  0  0  0  0  0
   -4.0352   -1.9395    8.1689 H   0  0  0  0  0  0  0  0  0  0  0  0
   -1.7453   -1.8641    7.4935 H   0  0  0  0  0  0  0  0  0  0  0  0
    1.2243   -2.7406    8.2984 H   0  0  0  0  0  0  0  0  0  0  0  0
    3.1202   -3.0746   11.5337 H   0  0  0  0  0  0  0  0  0  0  0  0
    7.0205   -0.4854   10.8902 H   0  0  0  0  0  0  0  0  0  0  0  0
    7.5082   -1.9217   11.5126 H   0  0  0  0  0  0  0  0  0  0  0  0
    9.0531   -0.4056   12.6567 H   0  0  0  0  0  0  0  0  0  0  0  0
    8.6542   -1.7900   14.4203 H   0  0  0  0  0  0  0  0  0  0  0  0
    8.3699   -0.2417   14.9729 H   0  0  0  0  0  0  0  0  0  0  0  0
    6.4951   -1.4901   15.1033 H   0  0  0  0  0  0  0  0  0  0  0  0
    7.2606   -3.0423   13.8956 H   0  0  0  0  0  0  0  0  0  0  0  0
    5.5760   -2.9775   14.3635 H   0  0  0  0  0  0  0  0  0  0  0  0
    0.7274   -0.6587   11.7505 H   0  0  0  0  0  0  0  0  0  0  0  0
   -1.4870   -0.1809   11.2096 H   0  0  0  0  0  0  0  0  0  0  0  0
  1  2  1  0
  2  3  2  0
  2  4  2  0
  2  5  1  0
  5  6  1  0
  6  7  1  0
  7  8  1  0
  8  9  2  0
  9 10  1  0
 10 11  2  0
 11 12  1  0
 12 13  1  0
 13 14  2  0
 13 15  1  0
 15 16  1  0
 16 17  1  0
 17 18  1  0
 18 19  1  0
 19 20  1  0
 11 21  1  0
 21 22  2  0
 22  8  1  0
 19 15  1  0
 20 15  1  0
  1 23  1  0
  1 24  1  0
  1 25  1  0
  5 26  1  0
  5 27  1  0
  6 28  1  0
  6 29  1  0
  9 30  1  0
 10 31  1  0
 12 32  1  0
 16 33  1  0
 16 34  1  0
 17 35  1  0
 18 36  1  0
 18 37  1  0
 19 38  1  0
 20 39  1  0
 20 40  1  0
 21 41  1  0
 22 42  1  0
M  END
>  <Energy>  (573) 
518.76801456423186

>  <compound_id>  (573) 
62246

>  <target_id>  (573) 
1

>  <reference_id>  (573) 
111

>  <inspiration_ids>  (573) 
[111, 95]

>  <energy_score>  (573) 
480.26877603921804

>  <distance_score>  (573) 
7.601245920054614

>  <path>  (573) 
/opt/xchem-fragalysis-2/maxwin/BulkDock/SCRATCH/511021/C62246-P111/C62246-P111.minimised.mol

>  <scratch_subdir>  (573) 
/opt/xchem-fragalysis-2/maxwin/BulkDock/SCRATCH/511021/C62246-P111

>  <fragmenstein_runtime>  (573) 
59.999706983566284

>  <fragmenstein_outcome>  (573) 
too moved

>  <fragmenstein_mode>  (573) 
expansion

>  <fragmenstein_error>  (573) 


$$$$
C62246-P95
     RDKit          3D

 42 44  0  0  0  0  0  0  0  0999 V2000
   -8.5662   -0.2419    7.1753 C   0  0  0  0  0  0  0  0  0  0  0  0
   -6.8671   -0.5583    6.8061 S   0  0  0  0  0  0  0  0  0  0  0  0
   -6.2680    0.7040    6.4124 O   0  0  0  0  0  0  0  0  0  0  0  0
   -6.3340   -1.3156    7.9195 O   0  0  0  0  0  0  0  0  0  0  0  0
   -6.9833   -1.6287    5.3859 C   0  0  0  0  0  0  0  0  0  0  0  0
   -5.6749   -2.3338    5.0902 C   0  0  0  0  0  0  0  0  0  0  0  0
   -4.7397   -1.4235    4.4928 O   0  0  0  0  0  0  0  0  0  0  0  0
   -3.4778   -1.4102    5.0417 C   0  0  0  0  0  0  0  0  0  0  0  0
   -2.3749   -1.1794    4.1258 C   0  0  0  0  0  0  0  0  0  0  0  0
   -0.8924   -1.2388    4.5774 C   0  0  0  0  0  0  0  0  0  0  0  0
   -0.4226   -1.5729    6.3354 C   0  0  0  0  0  0  0  0  0  0  0  0
    1.1808   -1.8584    7.4752 N   0  0  0  0  0  0  0  0  0  0  0  0
    1.4814   -1.5376    9.3877 C   0  0  0  0  0  0  0  0  0  0  0  0
    0.5557   -1.1882   10.0165 O   0  0  0  0  0  0  0  0  0  0  0  0
    3.1055   -1.8752   10.6833 C   0  0  0  0  0  0  0  0  0  0  0  0
    4.1828   -0.2185   10.9720 C   0  0  0  0  0  0  0  0  0  0  0  0
    5.6716   -0.6604   12.0233 N   0  0  0  0  0  0  0  0  0  0  0  0
    5.8137   -2.0993   12.0612 C   0  0  0  0  0  0  0  0  0  0  0  0
    4.3524   -2.9760   11.3826 C   0  0  0  0  0  0  0  0  0  0  0  0
    3.2336   -3.1614   12.1910 C   0  0  0  0  0  0  0  0  0  0  0  0
   -1.9430   -1.5530    7.0774 C   0  0  0  0  0  0  0  0  0  0  0  0
   -3.2612   -1.5380    6.4547 C   0  0  0  0  0  0  0  0  0  0  0  0
   -8.6101    0.4244    8.0396 H   0  0  0  0  0  0  0  0  0  0  0  0
   -9.0334    0.2368    6.3127 H   0  0  0  0  0  0  0  0  0  0  0  0
   -9.0627   -1.1855    7.4098 H   0  0  0  0  0  0  0  0  0  0  0  0
   -7.3097   -1.0111    4.5438 H   0  0  0  0  0  0  0  0  0  0  0  0
   -7.7530   -2.3727    5.6144 H   0  0  0  0  0  0  0  0  0  0  0  0
   -5.2975   -2.8782    5.9615 H   0  0  0  0  0  0  0  0  0  0  0  0
   -5.8676   -3.0980    4.3271 H   0  0  0  0  0  0  0  0  0  0  0  0
   -2.5914   -0.9373    3.0852 H   0  0  0  0  0  0  0  0  0  0  0  0
   -0.1482   -1.1697    3.7670 H   0  0  0  0  0  0  0  0  0  0  0  0
    2.0297   -2.2332    7.0685 H   0  0  0  0  0  0  0  0  0  0  0  0
    4.5937    0.2851   10.0988 H   0  0  0  0  0  0  0  0  0  0  0  0
    3.4692    0.6433   11.2330 H   0  0  0  0  0  0  0  0  0  0  0  0
    6.3859   -0.2808   11.4036 H   0  0  0  0  0  0  0  0  0  0  0  0
    6.0372   -2.3155   13.1349 H   0  0  0  0  0  0  0  0  0  0  0  0
    6.6824   -2.1461   11.3844 H   0  0  0  0  0  0  0  0  0  0  0  0
    4.5438   -3.9411   10.9403 H   0  0  0  0  0  0  0  0  0  0  0  0
    3.0376   -4.2606   12.2885 H   0  0  0  0  0  0  0  0  0  0  0  0
    3.1513   -3.0116   13.2390 H   0  0  0  0  0  0  0  0  0  0  0  0
   -2.0179   -1.5288    8.1769 H   0  0  0  0  0  0  0  0  0  0  0  0
   -4.0945   -1.5639    7.1489 H   0  0  0  0  0  0  0  0  0  0  0  0
  1  2  1  0
  2  3  2  0
  2  4  2  0
  2  5  1  0
  5  6  1  0
  6  7  1  0
  7  8  1  0
  8  9  2  0
  9 10  1  0
 10 11  2  0
 11 12  1  0
 12 13  1  0
 13 14  2  0
 13 15  1  0
 15 16  1  0
 16 17  1  0
 17 18  1  0
 18 19  1  0
 19 20  1  0
 11 21  1  0
 21 22  2  0
 22  8  1  0
 19 15  1  0
 20 15  1  0
  1 23  1  0
  1 24  1  0
  1 25  1  0
  5 26  1  0
  5 27  1  0
  6 28  1  0
  6 29  1  0
  9 30  1  0
 10 31  1  0
 12 32  1  0
 16 33  1  0
 16 34  1  0
 17 35  1  0
 18 36  1  0
 18 37  1  0
 19 38  1  0
 20 39  1  0
 20 40  1  0
 21 41  1  0
 22 42  1  0
M  END
>  <Energy>  (574) 
696.8685542206473

>  <compound_id>  (574) 
62246

>  <target_id>  (574) 
1

>  <reference_id>  (574) 
95

>  <inspiration_ids>  (574) 
[111, 95]

>  <energy_score>  (574) 
658.3693156956338

>  <distance_score>  (574) 
7.802363649796134

>  <path>  (574) 
/opt/xchem-fragalysis-2/maxwin/BulkDock/SCRATCH/511021/C62246-P95/C62246-P95.minimised.mol

>  <scratch_subdir>  (574) 
/opt/xchem-fragalysis-2/maxwin/BulkDock/SCRATCH/511021/C62246-P95

>  <fragmenstein_runtime>  (574) 
80.43772721290588

>  <fragmenstein_outcome>  (574) 
too moved

>  <fragmenstein_mode>  (574) 
expansion

>  <fragmenstein_error>  (574) 


$$$$
C29999-P111
     RDKit          3D

 48 49  0  0  0  0  0  0  0  0999 V2000
   -9.0788   -1.1352    7.0919 C   0  0  0  0  0  0  0  0  0  0  0  0
   -8.9286   -2.2716    5.7365 S   0  0  0  0  0  0  0  0  0  0  0  0
   -9.3146   -1.5485    4.5397 O   0  0  0  0  0  0  0  0  0  0  0  0
   -9.5654   -3.5116    6.1212 O   0  0  0  0  0  0  0  0  0  0  0  0
   -7.2002   -2.5904    5.5873 C   0  0  0  0  0  0  0  0  0  0  0  0
   -6.6620   -3.3618    6.7693 C   0  0  0  0  0  0  0  0  0  0  0  0
   -5.2276   -3.2984    6.9220 O   0  0  0  0  0  0  0  0  0  0  0  0
   -4.6559   -2.2065    7.5409 C   0  0  0  0  0  0  0  0  0  0  0  0
   -5.3531   -1.0498    7.7148 C   0  0  0  0  0  0  0  0  0  0  0  0
   -4.6285   -0.0176    8.1820 C   0  0  0  0  0  0  0  0  0  0  0  0
   -3.2322   -0.1721    8.4436 C   0  0  0  0  0  0  0  0  0  0  0  0
   -2.3583   -1.2724    8.3557 C   0  0  0  0  0  0  0  0  0  0  0  0
   -1.3799   -0.9924    9.5623 N   0  0  0  0  0  0  0  0  0  0  0  0
    0.5663   -1.4695    9.8847 C   0  0  0  0  0  0  0  0  0  0  0  0
    1.1299   -2.0096    8.9437 O   0  0  0  0  0  0  0  0  0  0  0  0
    1.9383   -1.1255   11.3458 C   0  0  0  0  0  0  0  0  0  0  0  0
    3.3247   -2.5306   11.5384 O   0  0  0  0  0  0  0  0  0  0  0  0
    4.9994   -2.9295   12.3963 C   0  0  0  0  0  0  0  0  0  0  0  0
    6.5871   -1.9075   12.0056 C   0  0  0  0  0  0  0  0  0  0  0  0
    7.1447   -0.9906   12.9361 C   0  0  0  0  0  0  0  0  0  0  0  0
    7.6380   -1.2301   14.2658 N   0  0  0  0  0  0  0  0  0  0  0  0
    7.2419   -2.5572   14.5534 C   0  0  0  0  0  0  0  0  0  0  0  0
    5.7641   -2.8745   14.2234 C   0  0  0  0  0  0  0  0  0  0  0  0
   -3.2450   -2.3204    8.0102 C   0  0  0  0  0  0  0  0  0  0  0  0
  -10.1355   -0.8731    7.1870 H   0  0  0  0  0  0  0  0  0  0  0  0
   -8.7437   -1.6045    8.0163 H   0  0  0  0  0  0  0  0  0  0  0  0
   -8.5034   -0.2357    6.8682 H   0  0  0  0  0  0  0  0  0  0  0  0
   -7.0623   -3.1682    4.6675 H   0  0  0  0  0  0  0  0  0  0  0  0
   -6.7356   -1.6146    5.4464 H   0  0  0  0  0  0  0  0  0  0  0  0
   -6.9147   -4.4189    6.6318 H   0  0  0  0  0  0  0  0  0  0  0  0
   -7.1627   -3.0688    7.6905 H   0  0  0  0  0  0  0  0  0  0  0  0
   -6.3889   -0.8986    7.4827 H   0  0  0  0  0  0  0  0  0  0  0  0
   -5.1152    0.9406    8.2783 H   0  0  0  0  0  0  0  0  0  0  0  0
   -2.7458    0.7412    8.7576 H   0  0  0  0  0  0  0  0  0  0  0  0
   -1.7894   -0.6466   10.4420 H   0  0  0  0  0  0  0  0  0  0  0  0
    2.6705   -0.2684   11.2974 H   0  0  0  0  0  0  0  0  0  0  0  0
    1.4819   -0.8705   12.3549 H   0  0  0  0  0  0  0  0  0  0  0  0
    5.0418   -3.9196   11.9587 H   0  0  0  0  0  0  0  0  0  0  0  0
    6.4980   -1.1025   11.2387 H   0  0  0  0  0  0  0  0  0  0  0  0
    7.2953   -2.5319   11.5301 H   0  0  0  0  0  0  0  0  0  0  0  0
    7.8488   -0.3162   12.4719 H   0  0  0  0  0  0  0  0  0  0  0  0
    6.1900   -0.5072   12.9633 H   0  0  0  0  0  0  0  0  0  0  0  0
    8.6668   -1.2564   14.1504 H   0  0  0  0  0  0  0  0  0  0  0  0
    7.4314   -2.6660   15.6002 H   0  0  0  0  0  0  0  0  0  0  0  0
    7.9882   -3.1630   14.1083 H   0  0  0  0  0  0  0  0  0  0  0  0
    5.3186   -3.5034   14.9824 H   0  0  0  0  0  0  0  0  0  0  0  0
    5.3727   -2.0691   14.7756 H   0  0  0  0  0  0  0  0  0  0  0  0
   -2.9485   -3.3562    7.9916 H   0  0  0  0  0  0  0  0  0  0  0  0
  1  2  1  0
  2  3  2  0
  2  4  2  0
  2  5  1  0
  5  6  1  0
  6  7  1  0
  7  8  1  0
  8  9  2  0
  9 10  1  0
 10 11  2  0
 11 12  1  0
 12 13  1  0
 13 14  1  0
 14 15  2  0
 14 16  1  0
 16 17  1  0
 17 18  1  0
 18 19  1  0
 19 20  1  0
 20 21  1  0
 21 22  1  0
 22 23  1  0
 12 24  2  0
 24  8  1  0
 23 18  1  0
  1 25  1  0
  1 26  1  0
  1 27  1  0
  5 28  1  0
  5 29  1  0
  6 30  1  0
  6 31  1  0
  9 32  1  0
 10 33  1  0
 11 34  1  0
 13 35  1  0
 16 36  1  0
 16 37  1  0
 18 38  1  0
 19 39  1  0
 19 40  1  0
 20 41  1  0
 20 42  1  0
 21 43  1  0
 22 44  1  0
 22 45  1  0
 23 46  1  0
 23 47  1  0
 24 48  1  0
M  END
>  <Energy>  (575) 
712.86546280881214

>  <compound_id>  (575) 
29999

>  <target_id>  (575) 
1

>  <reference_id>  (575) 
111

>  <inspiration_ids>  (575) 
[111, 95]

>  <energy_score>  (575) 
636.2746577238343

>  <distance_score>  (575) 
6.2703435400750385

>  <path>  (575) 
/opt/xchem-fragalysis-2/maxwin/BulkDock/SCRATCH/511021/C29999-P111/C29999-P111.minimised.mol

>  <scratch_subdir>  (575) 
/opt/xchem-fragalysis-2/maxwin/BulkDock/SCRATCH/511021/C29999-P111

>  <fragmenstein_runtime>  (575) 
23.553582906723022

>  <fragmenstein_outcome>  (575) 
too moved

>  <fragmenstein_mode>  (575) 
expansion

>  <fragmenstein_error>  (575) 


$$$$
C29999-P95
     RDKit          3D

 48 49  0  0  0  0  0  0  0  0999 V2000
   -7.5274    2.6803    7.0186 C   0  0  0  0  0  0  0  0  0  0  0  0
   -7.6046    1.2674    5.9538 S   0  0  0  0  0  0  0  0  0  0  0  0
   -8.7522    1.4444    5.0861 O   0  0  0  0  0  0  0  0  0  0  0  0
   -6.2890    1.0840    5.3742 O   0  0  0  0  0  0  0  0  0  0  0  0
   -7.9762   -0.0856    7.0387 C   0  0  0  0  0  0  0  0  0  0  0  0
   -7.0618   -0.1841    8.2462 C   0  0  0  0  0  0  0  0  0  0  0  0
   -5.7280    0.3085    8.0555 O   0  0  0  0  0  0  0  0  0  0  0  0
   -4.8198   -0.6249    7.6451 C   0  0  0  0  0  0  0  0  0  0  0  0
   -5.1307   -1.5922    6.7340 C   0  0  0  0  0  0  0  0  0  0  0  0
   -4.2384   -2.6033    6.6240 C   0  0  0  0  0  0  0  0  0  0  0  0
   -3.0478   -2.5883    7.3914 C   0  0  0  0  0  0  0  0  0  0  0  0
   -2.4342   -1.4765    7.9872 C   0  0  0  0  0  0  0  0  0  0  0  0
   -1.3888   -1.3138    9.1717 N   0  0  0  0  0  0  0  0  0  0  0  0
    0.5462   -1.7155    9.3029 C   0  0  0  0  0  0  0  0  0  0  0  0
    1.1691   -2.1063    8.2672 O   0  0  0  0  0  0  0  0  0  0  0  0
    1.8684   -1.5278   10.8570 C   0  0  0  0  0  0  0  0  0  0  0  0
    3.5233   -2.4090   11.1705 O   0  0  0  0  0  0  0  0  0  0  0  0
    5.2049   -2.5548   12.0095 C   0  0  0  0  0  0  0  0  0  0  0  0
    6.6867   -1.5898   11.5640 C   0  0  0  0  0  0  0  0  0  0  0  0
    7.2288   -0.6907   12.5619 C   0  0  0  0  0  0  0  0  0  0  0  0
    7.7721   -0.8895   13.8864 N   0  0  0  0  0  0  0  0  0  0  0  0
    7.3342   -2.1726   14.3202 C   0  0  0  0  0  0  0  0  0  0  0  0
    5.8764   -2.4229   13.8571 C   0  0  0  0  0  0  0  0  0  0  0  0
   -3.4875   -0.5403    8.1588 C   0  0  0  0  0  0  0  0  0  0  0  0
   -8.4390    2.7221    7.6175 H   0  0  0  0  0  0  0  0  0  0  0  0
   -7.4617    3.5712    6.3895 H   0  0  0  0  0  0  0  0  0  0  0  0
   -6.6455    2.6257    7.6553 H   0  0  0  0  0  0  0  0  0  0  0  0
   -9.0140    0.0302    7.3707 H   0  0  0  0  0  0  0  0  0  0  0  0
   -7.9572   -0.9908    6.4275 H   0  0  0  0  0  0  0  0  0  0  0  0
   -7.0618   -1.2028    8.6495 H   0  0  0  0  0  0  0  0  0  0  0  0
   -7.4850    0.4416    9.0413 H   0  0  0  0  0  0  0  0  0  0  0  0
   -6.0514   -1.6508    6.1804 H   0  0  0  0  0  0  0  0  0  0  0  0
   -4.5171   -3.4814    6.0609 H   0  0  0  0  0  0  0  0  0  0  0  0
   -2.7648   -3.6178    7.5229 H   0  0  0  0  0  0  0  0  0  0  0  0
   -1.7437   -1.1110   10.0995 H   0  0  0  0  0  0  0  0  0  0  0  0
    2.3324   -0.5579   11.0370 H   0  0  0  0  0  0  0  0  0  0  0  0
    1.2606   -1.3806   11.7431 H   0  0  0  0  0  0  0  0  0  0  0  0
    5.2177   -3.5824   11.7101 H   0  0  0  0  0  0  0  0  0  0  0  0
    7.3477   -2.2547   11.0699 H   0  0  0  0  0  0  0  0  0  0  0  0
    6.6305   -0.7989   10.8090 H   0  0  0  0  0  0  0  0  0  0  0  0
    7.8764    0.0532   12.1294 H   0  0  0  0  0  0  0  0  0  0  0  0
    6.2427   -0.2889   12.6376 H   0  0  0  0  0  0  0  0  0  0  0  0
    8.7925   -0.9601   13.7382 H   0  0  0  0  0  0  0  0  0  0  0  0
    7.4268   -2.0569   15.3844 H   0  0  0  0  0  0  0  0  0  0  0  0
    8.0877   -2.8923   14.1189 H   0  0  0  0  0  0  0  0  0  0  0  0
    5.2380   -2.8566   14.6316 H   0  0  0  0  0  0  0  0  0  0  0  0
    5.6615   -1.4200   14.0986 H   0  0  0  0  0  0  0  0  0  0  0  0
   -3.2791    0.3358    8.7486 H   0  0  0  0  0  0  0  0  0  0  0  0
  1  2  1  0
  2  3  2  0
  2  4  2  0
  2  5  1  0
  5  6  1  0
  6  7  1  0
  7  8  1  0
  8  9  2  0
  9 10  1  0
 10 11  2  0
 11 12  1  0
 12 13  1  0
 13 14  1  0
 14 15  2  0
 14 16  1  0
 16 17  1  0
 17 18  1  0
 18 19  1  0
 19 20  1  0
 20 21  1  0
 21 22  1  0
 22 23  1  0
 12 24  2  0
 24  8  1  0
 23 18  1  0
  1 25  1  0
  1 26  1  0
  1 27  1  0
  5 28  1  0
  5 29  1  0
  6 30  1  0
  6 31  1  0
  9 32  1  0
 10 33  1  0
 11 34  1  0
 13 35  1  0
 16 36  1  0
 16 37  1  0
 18 38  1  0
 19 39  1  0
 19 40  1  0
 20 41  1  0
 20 42  1  0
 21 43  1  0
 22 44  1  0
 22 45  1  0
 23 46  1  0
 23 47  1  0
 24 48  1  0
M  END
>  <Energy>  (576) 
653.27910113571693

>  <compound_id>  (576) 
29999

>  <target_id>  (576) 
1

>  <reference_id>  (576) 
95

>  <inspiration_ids>  (576) 
[111, 95]

>  <energy_score>  (576) 
576.6882960507569

>  <distance_score>  (576) 
6.272664468867796

>  <path>  (576) 
/opt/xchem-fragalysis-2/maxwin/BulkDock/SCRATCH/511021/C29999-P95/C29999-P95.minimised.mol

>  <scratch_subdir>  (576) 
/opt/xchem-fragalysis-2/maxwin/BulkDock/SCRATCH/511021/C29999-P95

>  <fragmenstein_runtime>  (576) 
32.1612753868103

>  <fragmenstein_outcome>  (576) 
too moved

>  <fragmenstein_mode>  (576) 
expansion

>  <fragmenstein_error>  (576) 


$$$$
C62251-P111
     RDKit          3D

 34 35  0  0  0  0  0  0  0  0999 V2000
    2.9886    1.1719   12.3522 O   0  0  0  0  0  0  0  0  0  0  0  0
    3.4454    0.3894   11.1872 S   0  0  0  0  0  0  0  0  0  0  0  0
    3.6873    1.2887   10.0547 O   0  0  0  0  0  0  0  0  0  0  0  0
    5.5410   -0.5962   11.7297 C   0  0  0  0  0  0  0  0  0  0  0  0
    6.8422   -0.9067   13.0105 C   0  0  0  0  0  0  0  0  0  0  0  0
    8.0966   -0.1211   13.2094 O   0  0  0  0  0  0  0  0  0  0  0  0
    9.0269   -0.2345   14.2681 C   0  0  0  0  0  0  0  0  0  0  0  0
   10.1033    0.6822   14.2094 C   0  0  0  0  0  0  0  0  0  0  0  0
   11.3222    0.4380   14.8478 C   0  0  0  0  0  0  0  0  0  0  0  0
   11.5117   -0.7802   15.4703 C   0  0  0  0  0  0  0  0  0  0  0  0
   13.2136   -1.2431   16.1448 Br  0  0  0  0  0  0  0  0  0  0  0  0
   10.4615   -1.6916   15.5349 C   0  0  0  0  0  0  0  0  0  0  0  0
    9.1783   -1.3812   15.0389 C   0  0  0  0  0  0  0  0  0  0  0  0
    1.5764   -0.9401   10.4860 C   0  0  0  0  0  0  0  0  0  0  0  0
   -0.2855   -0.9966    9.8985 C   0  0  0  0  0  0  0  0  0  0  0  0
   -1.9524    0.0044    9.0435 C   0  0  0  0  0  0  0  0  0  0  0  0
   -2.8932   -0.9805    8.8515 N   0  0  0  0  0  0  0  0  0  0  0  0
   -1.7429   -1.6480    8.4725 C   0  0  0  0  0  0  0  0  0  0  0  0
    5.3170   -1.4635   12.2181 H   0  0  0  0  0  0  0  0  0  0  0  0
    6.1850   -0.6179   10.8271 H   0  0  0  0  0  0  0  0  0  0  0  0
    7.2072   -1.8561   12.6298 H   0  0  0  0  0  0  0  0  0  0  0  0
    6.4374   -1.2132   13.9869 H   0  0  0  0  0  0  0  0  0  0  0  0
   10.0452    1.5405   13.5485 H   0  0  0  0  0  0  0  0  0  0  0  0
   12.1353    1.1501   14.7454 H   0  0  0  0  0  0  0  0  0  0  0  0
   10.6779   -2.6941   15.8921 H   0  0  0  0  0  0  0  0  0  0  0  0
    8.4154   -2.1505   14.9907 H   0  0  0  0  0  0  0  0  0  0  0  0
    1.6823   -0.3564    9.5682 H   0  0  0  0  0  0  0  0  0  0  0  0
    1.8898   -1.9767   10.4758 H   0  0  0  0  0  0  0  0  0  0  0  0
    0.5185   -1.8074    9.4967 H   0  0  0  0  0  0  0  0  0  0  0  0
   -1.8426    0.4471    8.0691 H   0  0  0  0  0  0  0  0  0  0  0  0
   -2.5701    0.8239    9.3544 H   0  0  0  0  0  0  0  0  0  0  0  0
   -3.5783   -0.7970    8.1219 H   0  0  0  0  0  0  0  0  0  0  0  0
   -1.5583   -1.4359    7.4114 H   0  0  0  0  0  0  0  0  0  0  0  0
   -2.2760   -2.5953    8.3964 H   0  0  0  0  0  0  0  0  0  0  0  0
  1  2  2  0
  2  3  2  0
  2  4  1  0
  4  5  1  0
  5  6  1  0
  6  7  1  0
  7  8  2  0
  8  9  1  0
  9 10  2  0
 10 11  1  0
 10 12  1  0
 12 13  2  0
  2 14  1  0
 14 15  1  0
 15 16  1  0
 16 17  1  0
 17 18  1  0
 13  7  1  0
 18 15  1  0
  4 19  1  0
  4 20  1  0
  5 21  1  0
  5 22  1  0
  8 23  1  0
  9 24  1  0
 12 25  1  0
 13 26  1  0
 14 27  1  0
 14 28  1  0
 15 29  1  0
 16 30  1  0
 16 31  1  0
 17 32  1  0
 18 33  1  0
 18 34  1  0
M  END
>  <Energy>  (577) 
697.85716658350975

>  <compound_id>  (577) 
62251

>  <target_id>  (577) 
1

>  <reference_id>  (577) 
111

>  <inspiration_ids>  (577) 
[111, 95]

>  <energy_score>  (577) 
649.8263662898496

>  <distance_score>  (577) 
7.123066451071732

>  <path>  (577) 
/opt/xchem-fragalysis-2/maxwin/BulkDock/SCRATCH/511021/C62251-P111/C62251-P111.minimised.mol

>  <scratch_subdir>  (577) 
/opt/xchem-fragalysis-2/maxwin/BulkDock/SCRATCH/511021/C62251-P111

>  <fragmenstein_runtime>  (577) 
12.793996572494507

>  <fragmenstein_outcome>  (577) 
too moved

>  <fragmenstein_mode>  (577) 
expansion

>  <fragmenstein_error>  (577) 


$$$$
C62251-P95
     RDKit          3D

 34 35  0  0  0  0  0  0  0  0999 V2000
    2.8825    1.4165   11.3176 O   0  0  0  0  0  0  0  0  0  0  0  0
    2.7395    1.2784    9.8694 S   0  0  0  0  0  0  0  0  0  0  0  0
    2.2029    2.4168    9.1082 O   0  0  0  0  0  0  0  0  0  0  0  0
    4.9137    1.5302    9.2707 C   0  0  0  0  0  0  0  0  0  0  0  0
    6.6777    0.5994    9.5433 C   0  0  0  0  0  0  0  0  0  0  0  0
    7.1012   -0.4100   11.0086 O   0  0  0  0  0  0  0  0  0  0  0  0
    7.5236   -0.1722   12.4553 C   0  0  0  0  0  0  0  0  0  0  0  0
    8.5603    0.7737   12.9363 C   0  0  0  0  0  0  0  0  0  0  0  0
    9.2483    0.6244   14.1384 C   0  0  0  0  0  0  0  0  0  0  0  0
    9.0378   -0.5528   14.8189 C   0  0  0  0  0  0  0  0  0  0  0  0
   10.5802   -1.3043   15.6041 Br  0  0  0  0  0  0  0  0  0  0  0  0
    7.9262   -1.3565   14.5391 C   0  0  0  0  0  0  0  0  0  0  0  0
    7.1380   -1.1296   13.3877 C   0  0  0  0  0  0  0  0  0  0  0  0
    1.2067   -0.5528    9.3454 C   0  0  0  0  0  0  0  0  0  0  0  0
   -0.8968   -1.0609    9.3177 C   0  0  0  0  0  0  0  0  0  0  0  0
   -2.3231   -1.9398    8.2893 C   0  0  0  0  0  0  0  0  0  0  0  0
   -3.0260   -0.8275    7.8660 N   0  0  0  0  0  0  0  0  0  0  0  0
   -2.5482    0.0042    8.8548 C   0  0  0  0  0  0  0  0  0  0  0  0
    4.8465    1.7387    8.1883 H   0  0  0  0  0  0  0  0  0  0  0  0
    5.0686    2.5424    9.6894 H   0  0  0  0  0  0  0  0  0  0  0  0
    7.4178    1.3956    9.3842 H   0  0  0  0  0  0  0  0  0  0  0  0
    7.0416   -0.0575    8.7362 H   0  0  0  0  0  0  0  0  0  0  0  0
    8.9651    1.5798   12.3215 H   0  0  0  0  0  0  0  0  0  0  0  0
   10.1033    1.2620   14.3438 H   0  0  0  0  0  0  0  0  0  0  0  0
    7.8028   -2.3053   15.0430 H   0  0  0  0  0  0  0  0  0  0  0  0
    6.3842   -1.8431   13.1346 H   0  0  0  0  0  0  0  0  0  0  0  0
    1.5806   -1.3215   10.0227 H   0  0  0  0  0  0  0  0  0  0  0  0
    1.5722   -0.4375    8.3212 H   0  0  0  0  0  0  0  0  0  0  0  0
   -0.6859   -1.1752   10.6350 H   0  0  0  0  0  0  0  0  0  0  0  0
   -2.2687   -2.4335    7.3337 H   0  0  0  0  0  0  0  0  0  0  0  0
   -2.9956   -2.5943    8.8222 H   0  0  0  0  0  0  0  0  0  0  0  0
   -3.0603   -0.5105    6.9093 H   0  0  0  0  0  0  0  0  0  0  0  0
   -3.3869    0.0635    9.5455 H   0  0  0  0  0  0  0  0  0  0  0  0
   -2.5323    1.0300    8.4902 H   0  0  0  0  0  0  0  0  0  0  0  0
  1  2  2  0
  2  3  2  0
  2  4  1  0
  4  5  1  0
  5  6  1  0
  6  7  1  0
  7  8  2  0
  8  9  1  0
  9 10  2  0
 10 11  1  0
 10 12  1  0
 12 13  2  0
  2 14  1  0
 14 15  1  0
 15 16  1  0
 16 17  1  0
 17 18  1  0
 13  7  1  0
 18 15  1  0
  4 19  1  0
  4 20  1  0
  5 21  1  0
  5 22  1  0
  8 23  1  0
  9 24  1  0
 12 25  1  0
 13 26  1  0
 14 27  1  0
 14 28  1  0
 15 29  1  0
 16 30  1  0
 16 31  1  0
 17 32  1  0
 18 33  1  0
 18 34  1  0
M  END
>  <Energy>  (578) 
658.62495314056935

>  <compound_id>  (578) 
62251

>  <target_id>  (578) 
1

>  <reference_id>  (578) 
95

>  <inspiration_ids>  (578) 
[111, 95]

>  <energy_score>  (578) 
610.5941528469021

>  <distance_score>  (578) 
7.808125997839392

>  <path>  (578) 
/opt/xchem-fragalysis-2/maxwin/BulkDock/SCRATCH/511021/C62251-P95/C62251-P95.minimised.mol

>  <scratch_subdir>  (578) 
/opt/xchem-fragalysis-2/maxwin/BulkDock/SCRATCH/511021/C62251-P95

>  <fragmenstein_runtime>  (578) 
15.368661642074585

>  <fragmenstein_outcome>  (578) 
too moved

>  <fragmenstein_mode>  (578) 
expansion

>  <fragmenstein_error>  (578) 


$$$$
C62251-P111
     RDKit          3D

 34 35  0  0  0  0  0  0  0  0999 V2000
    2.9886    1.1719   12.3522 O   0  0  0  0  0  0  0  0  0  0  0  0
    3.4454    0.3894   11.1872 S   0  0  0  0  0  0  0  0  0  0  0  0
    3.6873    1.2887   10.0547 O   0  0  0  0  0  0  0  0  0  0  0  0
    5.5410   -0.5962   11.7297 C   0  0  0  0  0  0  0  0  0  0  0  0
    6.8422   -0.9067   13.0105 C   0  0  0  0  0  0  0  0  0  0  0  0
    8.0966   -0.1211   13.2094 O   0  0  0  0  0  0  0  0  0  0  0  0
    9.0269   -0.2345   14.2681 C   0  0  0  0  0  0  0  0  0  0  0  0
   10.1033    0.6822   14.2094 C   0  0  0  0  0  0  0  0  0  0  0  0
   11.3222    0.4380   14.8478 C   0  0  0  0  0  0  0  0  0  0  0  0
   11.5117   -0.7802   15.4703 C   0  0  0  0  0  0  0  0  0  0  0  0
   13.2136   -1.2431   16.1448 Br  0  0  0  0  0  0  0  0  0  0  0  0
   10.4615   -1.6916   15.5349 C   0  0  0  0  0  0  0  0  0  0  0  0
    9.1783   -1.3812   15.0389 C   0  0  0  0  0  0  0  0  0  0  0  0
    1.5764   -0.9401   10.4860 C   0  0  0  0  0  0  0  0  0  0  0  0
   -0.2855   -0.9966    9.8985 C   0  0  0  0  0  0  0  0  0  0  0  0
   -1.9524    0.0044    9.0435 C   0  0  0  0  0  0  0  0  0  0  0  0
   -2.8932   -0.9805    8.8515 N   0  0  0  0  0  0  0  0  0  0  0  0
   -1.7429   -1.6480    8.4725 C   0  0  0  0  0  0  0  0  0  0  0  0
    5.3170   -1.4635   12.2181 H   0  0  0  0  0  0  0  0  0  0  0  0
    6.1850   -0.6179   10.8271 H   0  0  0  0  0  0  0  0  0  0  0  0
    7.2072   -1.8561   12.6298 H   0  0  0  0  0  0  0  0  0  0  0  0
    6.4374   -1.2132   13.9869 H   0  0  0  0  0  0  0  0  0  0  0  0
   10.0452    1.5405   13.5485 H   0  0  0  0  0  0  0  0  0  0  0  0
   12.1353    1.1501   14.7454 H   0  0  0  0  0  0  0  0  0  0  0  0
   10.6779   -2.6941   15.8921 H   0  0  0  0  0  0  0  0  0  0  0  0
    8.4154   -2.1505   14.9907 H   0  0  0  0  0  0  0  0  0  0  0  0
    1.6823   -0.3564    9.5682 H   0  0  0  0  0  0  0  0  0  0  0  0
    1.8898   -1.9767   10.4758 H   0  0  0  0  0  0  0  0  0  0  0  0
    0.5185   -1.8074    9.4967 H   0  0  0  0  0  0  0  0  0  0  0  0
   -1.8426    0.4471    8.0691 H   0  0  0  0  0  0  0  0  0  0  0  0
   -2.5701    0.8239    9.3544 H   0  0  0  0  0  0  0  0  0  0  0  0
   -3.5783   -0.7970    8.1219 H   0  0  0  0  0  0  0  0  0  0  0  0
   -1.5583   -1.4359    7.4114 H   0  0  0  0  0  0  0  0  0  0  0  0
   -2.2760   -2.5953    8.3964 H   0  0  0  0  0  0  0  0  0  0  0  0
  1  2  2  0
  2  3  2  0
  2  4  1  0
  4  5  1  0
  5  6  1  0
  6  7  1  0
  7  8  2  0
  8  9  1  0
  9 10  2  0
 10 11  1  0
 10 12  1  0
 12 13  2  0
  2 14  1  0
 14 15  1  0
 15 16  1  0
 16 17  1  0
 17 18  1  0
 13  7  1  0
 18 15  1  0
  4 19  1  0
  4 20  1  0
  5 21  1  0
  5 22  1  0
  8 23  1  0
  9 24  1  0
 12 25  1  0
 13 26  1  0
 14 27  1  0
 14 28  1  0
 15 29  1  0
 16 30  1  0
 16 31  1  0
 17 32  1  0
 18 33  1  0
 18 34  1  0
M  END
>  <Energy>  (579) 
697.85716658350975

>  <compound_id>  (579) 
62251

>  <target_id>  (579) 
1

>  <reference_id>  (579) 
111

>  <inspiration_ids>  (579) 
[111, 95]

>  <energy_score>  (579) 
649.8263662898496

>  <distance_score>  (579) 
7.123066451071732

>  <path>  (579) 
/opt/xchem-fragalysis-2/maxwin/BulkDock/SCRATCH/511021/C62251-P111/C62251-P111.minimised.mol

>  <scratch_subdir>  (579) 
/opt/xchem-fragalysis-2/maxwin/BulkDock/SCRATCH/511021/C62251-P111

>  <fragmenstein_runtime>  (579) 
15.133846998214722

>  <fragmenstein_outcome>  (579) 
too moved

>  <fragmenstein_mode>  (579) 
expansion

>  <fragmenstein_error>  (579) 


$$$$
C62251-P95
     RDKit          3D

 34 35  0  0  0  0  0  0  0  0999 V2000
    2.8825    1.4165   11.3176 O   0  0  0  0  0  0  0  0  0  0  0  0
    2.7395    1.2784    9.8694 S   0  0  0  0  0  0  0  0  0  0  0  0
    2.2029    2.4168    9.1082 O   0  0  0  0  0  0  0  0  0  0  0  0
    4.9137    1.5302    9.2707 C   0  0  0  0  0  0  0  0  0  0  0  0
    6.6777    0.5994    9.5433 C   0  0  0  0  0  0  0  0  0  0  0  0
    7.1012   -0.4100   11.0086 O   0  0  0  0  0  0  0  0  0  0  0  0
    7.5236   -0.1722   12.4553 C   0  0  0  0  0  0  0  0  0  0  0  0
    8.5603    0.7737   12.9363 C   0  0  0  0  0  0  0  0  0  0  0  0
    9.2483    0.6244   14.1384 C   0  0  0  0  0  0  0  0  0  0  0  0
    9.0378   -0.5528   14.8189 C   0  0  0  0  0  0  0  0  0  0  0  0
   10.5802   -1.3043   15.6041 Br  0  0  0  0  0  0  0  0  0  0  0  0
    7.9262   -1.3565   14.5391 C   0  0  0  0  0  0  0  0  0  0  0  0
    7.1380   -1.1296   13.3877 C   0  0  0  0  0  0  0  0  0  0  0  0
    1.2067   -0.5528    9.3454 C   0  0  0  0  0  0  0  0  0  0  0  0
   -0.8968   -1.0609    9.3177 C   0  0  0  0  0  0  0  0  0  0  0  0
   -2.3231   -1.9398    8.2893 C   0  0  0  0  0  0  0  0  0  0  0  0
   -3.0260   -0.8275    7.8660 N   0  0  0  0  0  0  0  0  0  0  0  0
   -2.5482    0.0042    8.8548 C   0  0  0  0  0  0  0  0  0  0  0  0
    4.8465    1.7387    8.1883 H   0  0  0  0  0  0  0  0  0  0  0  0
    5.0686    2.5424    9.6894 H   0  0  0  0  0  0  0  0  0  0  0  0
    7.4178    1.3956    9.3842 H   0  0  0  0  0  0  0  0  0  0  0  0
    7.0416   -0.0575    8.7362 H   0  0  0  0  0  0  0  0  0  0  0  0
    8.9651    1.5798   12.3215 H   0  0  0  0  0  0  0  0  0  0  0  0
   10.1033    1.2620   14.3438 H   0  0  0  0  0  0  0  0  0  0  0  0
    7.8028   -2.3053   15.0430 H   0  0  0  0  0  0  0  0  0  0  0  0
    6.3842   -1.8431   13.1346 H   0  0  0  0  0  0  0  0  0  0  0  0
    1.5806   -1.3215   10.0227 H   0  0  0  0  0  0  0  0  0  0  0  0
    1.5722   -0.4375    8.3212 H   0  0  0  0  0  0  0  0  0  0  0  0
   -0.6859   -1.1752   10.6350 H   0  0  0  0  0  0  0  0  0  0  0  0
   -2.2687   -2.4335    7.3337 H   0  0  0  0  0  0  0  0  0  0  0  0
   -2.9956   -2.5943    8.8222 H   0  0  0  0  0  0  0  0  0  0  0  0
   -3.0603   -0.5105    6.9093 H   0  0  0  0  0  0  0  0  0  0  0  0
   -3.3869    0.0635    9.5455 H   0  0  0  0  0  0  0  0  0  0  0  0
   -2.5323    1.0300    8.4902 H   0  0  0  0  0  0  0  0  0  0  0  0
  1  2  2  0
  2  3  2  0
  2  4  1  0
  4  5  1  0
  5  6  1  0
  6  7  1  0
  7  8  2  0
  8  9  1  0
  9 10  2  0
 10 11  1  0
 10 12  1  0
 12 13  2  0
  2 14  1  0
 14 15  1  0
 15 16  1  0
 16 17  1  0
 17 18  1  0
 13  7  1  0
 18 15  1  0
  4 19  1  0
  4 20  1  0
  5 21  1  0
  5 22  1  0
  8 23  1  0
  9 24  1  0
 12 25  1  0
 13 26  1  0
 14 27  1  0
 14 28  1  0
 15 29  1  0
 16 30  1  0
 16 31  1  0
 17 32  1  0
 18 33  1  0
 18 34  1  0
M  END
>  <Energy>  (580) 
658.62495314056935

>  <compound_id>  (580) 
62251

>  <target_id>  (580) 
1

>  <reference_id>  (580) 
95

>  <inspiration_ids>  (580) 
[111, 95]

>  <energy_score>  (580) 
610.5941528469021

>  <distance_score>  (580) 
7.808125997839392

>  <path>  (580) 
/opt/xchem-fragalysis-2/maxwin/BulkDock/SCRATCH/511021/C62251-P95/C62251-P95.minimised.mol

>  <scratch_subdir>  (580) 
/opt/xchem-fragalysis-2/maxwin/BulkDock/SCRATCH/511021/C62251-P95

>  <fragmenstein_runtime>  (580) 
18.069647073745728

>  <fragmenstein_outcome>  (580) 
too moved

>  <fragmenstein_mode>  (580) 
expansion

>  <fragmenstein_error>  (580) 


$$$$
C29999-P111
     RDKit          3D

 48 49  0  0  0  0  0  0  0  0999 V2000
   -9.0788   -1.1352    7.0919 C   0  0  0  0  0  0  0  0  0  0  0  0
   -8.9286   -2.2716    5.7365 S   0  0  0  0  0  0  0  0  0  0  0  0
   -9.3146   -1.5485    4.5397 O   0  0  0  0  0  0  0  0  0  0  0  0
   -9.5654   -3.5116    6.1212 O   0  0  0  0  0  0  0  0  0  0  0  0
   -7.2002   -2.5904    5.5873 C   0  0  0  0  0  0  0  0  0  0  0  0
   -6.6620   -3.3618    6.7693 C   0  0  0  0  0  0  0  0  0  0  0  0
   -5.2276   -3.2984    6.9220 O   0  0  0  0  0  0  0  0  0  0  0  0
   -4.6559   -2.2065    7.5409 C   0  0  0  0  0  0  0  0  0  0  0  0
   -5.3531   -1.0498    7.7148 C   0  0  0  0  0  0  0  0  0  0  0  0
   -4.6285   -0.0176    8.1820 C   0  0  0  0  0  0  0  0  0  0  0  0
   -3.2322   -0.1721    8.4436 C   0  0  0  0  0  0  0  0  0  0  0  0
   -2.3583   -1.2724    8.3557 C   0  0  0  0  0  0  0  0  0  0  0  0
   -1.3799   -0.9924    9.5623 N   0  0  0  0  0  0  0  0  0  0  0  0
    0.5663   -1.4695    9.8847 C   0  0  0  0  0  0  0  0  0  0  0  0
    1.1299   -2.0096    8.9437 O   0  0  0  0  0  0  0  0  0  0  0  0
    1.9383   -1.1255   11.3458 C   0  0  0  0  0  0  0  0  0  0  0  0
    3.3247   -2.5306   11.5384 O   0  0  0  0  0  0  0  0  0  0  0  0
    4.9994   -2.9295   12.3963 C   0  0  0  0  0  0  0  0  0  0  0  0
    6.5871   -1.9075   12.0056 C   0  0  0  0  0  0  0  0  0  0  0  0
    7.1447   -0.9906   12.9361 C   0  0  0  0  0  0  0  0  0  0  0  0
    7.6380   -1.2301   14.2658 N   0  0  0  0  0  0  0  0  0  0  0  0
    7.2419   -2.5572   14.5534 C   0  0  0  0  0  0  0  0  0  0  0  0
    5.7641   -2.8745   14.2234 C   0  0  0  0  0  0  0  0  0  0  0  0
   -3.2450   -2.3204    8.0102 C   0  0  0  0  0  0  0  0  0  0  0  0
  -10.1355   -0.8731    7.1870 H   0  0  0  0  0  0  0  0  0  0  0  0
   -8.7437   -1.6045    8.0163 H   0  0  0  0  0  0  0  0  0  0  0  0
   -8.5034   -0.2357    6.8682 H   0  0  0  0  0  0  0  0  0  0  0  0
   -7.0623   -3.1682    4.6675 H   0  0  0  0  0  0  0  0  0  0  0  0
   -6.7356   -1.6146    5.4464 H   0  0  0  0  0  0  0  0  0  0  0  0
   -6.9147   -4.4189    6.6318 H   0  0  0  0  0  0  0  0  0  0  0  0
   -7.1627   -3.0688    7.6905 H   0  0  0  0  0  0  0  0  0  0  0  0
   -6.3889   -0.8986    7.4827 H   0  0  0  0  0  0  0  0  0  0  0  0
   -5.1152    0.9406    8.2783 H   0  0  0  0  0  0  0  0  0  0  0  0
   -2.7458    0.7412    8.7576 H   0  0  0  0  0  0  0  0  0  0  0  0
   -1.7894   -0.6466   10.4420 H   0  0  0  0  0  0  0  0  0  0  0  0
    2.6705   -0.2684   11.2974 H   0  0  0  0  0  0  0  0  0  0  0  0
    1.4819   -0.8705   12.3549 H   0  0  0  0  0  0  0  0  0  0  0  0
    5.0418   -3.9196   11.9587 H   0  0  0  0  0  0  0  0  0  0  0  0
    6.4980   -1.1025   11.2387 H   0  0  0  0  0  0  0  0  0  0  0  0
    7.2953   -2.5319   11.5301 H   0  0  0  0  0  0  0  0  0  0  0  0
    7.8488   -0.3162   12.4719 H   0  0  0  0  0  0  0  0  0  0  0  0
    6.1900   -0.5072   12.9633 H   0  0  0  0  0  0  0  0  0  0  0  0
    8.6668   -1.2564   14.1504 H   0  0  0  0  0  0  0  0  0  0  0  0
    7.4314   -2.6660   15.6002 H   0  0  0  0  0  0  0  0  0  0  0  0
    7.9882   -3.1630   14.1083 H   0  0  0  0  0  0  0  0  0  0  0  0
    5.3186   -3.5034   14.9824 H   0  0  0  0  0  0  0  0  0  0  0  0
    5.3727   -2.0691   14.7756 H   0  0  0  0  0  0  0  0  0  0  0  0
   -2.9485   -3.3562    7.9916 H   0  0  0  0  0  0  0  0  0  0  0  0
  1  2  1  0
  2  3  2  0
  2  4  2  0
  2  5  1  0
  5  6  1  0
  6  7  1  0
  7  8  1  0
  8  9  2  0
  9 10  1  0
 10 11  2  0
 11 12  1  0
 12 13  1  0
 13 14  1  0
 14 15  2  0
 14 16  1  0
 16 17  1  0
 17 18  1  0
 18 19  1  0
 19 20  1  0
 20 21  1  0
 21 22  1  0
 22 23  1  0
 12 24  2  0
 24  8  1  0
 23 18  1  0
  1 25  1  0
  1 26  1  0
  1 27  1  0
  5 28  1  0
  5 29  1  0
  6 30  1  0
  6 31  1  0
  9 32  1  0
 10 33  1  0
 11 34  1  0
 13 35  1  0
 16 36  1  0
 16 37  1  0
 18 38  1  0
 19 39  1  0
 19 40  1  0
 20 41  1  0
 20 42  1  0
 21 43  1  0
 22 44  1  0
 22 45  1  0
 23 46  1  0
 23 47  1  0
 24 48  1  0
M  END
>  <Energy>  (581) 
712.86546280881214

>  <compound_id>  (581) 
29999

>  <target_id>  (581) 
1

>  <reference_id>  (581) 
111

>  <inspiration_ids>  (581) 
[111, 95]

>  <energy_score>  (581) 
636.2746577238343

>  <distance_score>  (581) 
6.2703435400750385

>  <path>  (581) 
/opt/xchem-fragalysis-2/maxwin/BulkDock/SCRATCH/511021/C29999-P111/C29999-P111.minimised.mol

>  <scratch_subdir>  (581) 
/opt/xchem-fragalysis-2/maxwin/BulkDock/SCRATCH/511021/C29999-P111

>  <fragmenstein_runtime>  (581) 
20.940125465393066

>  <fragmenstein_outcome>  (581) 
too moved

>  <fragmenstein_mode>  (581) 
expansion

>  <fragmenstein_error>  (581) 


$$$$
C29999-P95
     RDKit          3D

 48 49  0  0  0  0  0  0  0  0999 V2000
   -7.5274    2.6803    7.0186 C   0  0  0  0  0  0  0  0  0  0  0  0
   -7.6046    1.2674    5.9538 S   0  0  0  0  0  0  0  0  0  0  0  0
   -8.7522    1.4444    5.0861 O   0  0  0  0  0  0  0  0  0  0  0  0
   -6.2890    1.0840    5.3742 O   0  0  0  0  0  0  0  0  0  0  0  0
   -7.9762   -0.0856    7.0387 C   0  0  0  0  0  0  0  0  0  0  0  0
   -7.0618   -0.1841    8.2462 C   0  0  0  0  0  0  0  0  0  0  0  0
   -5.7280    0.3085    8.0555 O   0  0  0  0  0  0  0  0  0  0  0  0
   -4.8198   -0.6249    7.6451 C   0  0  0  0  0  0  0  0  0  0  0  0
   -5.1307   -1.5922    6.7340 C   0  0  0  0  0  0  0  0  0  0  0  0
   -4.2384   -2.6033    6.6240 C   0  0  0  0  0  0  0  0  0  0  0  0
   -3.0478   -2.5883    7.3914 C   0  0  0  0  0  0  0  0  0  0  0  0
   -2.4342   -1.4765    7.9872 C   0  0  0  0  0  0  0  0  0  0  0  0
   -1.3888   -1.3138    9.1717 N   0  0  0  0  0  0  0  0  0  0  0  0
    0.5462   -1.7155    9.3029 C   0  0  0  0  0  0  0  0  0  0  0  0
    1.1691   -2.1063    8.2672 O   0  0  0  0  0  0  0  0  0  0  0  0
    1.8684   -1.5278   10.8570 C   0  0  0  0  0  0  0  0  0  0  0  0
    3.5233   -2.4090   11.1705 O   0  0  0  0  0  0  0  0  0  0  0  0
    5.2049   -2.5548   12.0095 C   0  0  0  0  0  0  0  0  0  0  0  0
    6.6867   -1.5898   11.5640 C   0  0  0  0  0  0  0  0  0  0  0  0
    7.2288   -0.6907   12.5619 C   0  0  0  0  0  0  0  0  0  0  0  0
    7.7721   -0.8895   13.8864 N   0  0  0  0  0  0  0  0  0  0  0  0
    7.3342   -2.1726   14.3202 C   0  0  0  0  0  0  0  0  0  0  0  0
    5.8764   -2.4229   13.8571 C   0  0  0  0  0  0  0  0  0  0  0  0
   -3.4875   -0.5403    8.1588 C   0  0  0  0  0  0  0  0  0  0  0  0
   -8.4390    2.7221    7.6175 H   0  0  0  0  0  0  0  0  0  0  0  0
   -7.4617    3.5712    6.3895 H   0  0  0  0  0  0  0  0  0  0  0  0
   -6.6455    2.6257    7.6553 H   0  0  0  0  0  0  0  0  0  0  0  0
   -9.0140    0.0302    7.3707 H   0  0  0  0  0  0  0  0  0  0  0  0
   -7.9572   -0.9908    6.4275 H   0  0  0  0  0  0  0  0  0  0  0  0
   -7.0618   -1.2028    8.6495 H   0  0  0  0  0  0  0  0  0  0  0  0
   -7.4850    0.4416    9.0413 H   0  0  0  0  0  0  0  0  0  0  0  0
   -6.0514   -1.6508    6.1804 H   0  0  0  0  0  0  0  0  0  0  0  0
   -4.5171   -3.4814    6.0609 H   0  0  0  0  0  0  0  0  0  0  0  0
   -2.7648   -3.6178    7.5229 H   0  0  0  0  0  0  0  0  0  0  0  0
   -1.7437   -1.1110   10.0995 H   0  0  0  0  0  0  0  0  0  0  0  0
    2.3324   -0.5579   11.0370 H   0  0  0  0  0  0  0  0  0  0  0  0
    1.2606   -1.3806   11.7431 H   0  0  0  0  0  0  0  0  0  0  0  0
    5.2177   -3.5824   11.7101 H   0  0  0  0  0  0  0  0  0  0  0  0
    7.3477   -2.2547   11.0699 H   0  0  0  0  0  0  0  0  0  0  0  0
    6.6305   -0.7989   10.8090 H   0  0  0  0  0  0  0  0  0  0  0  0
    7.8764    0.0532   12.1294 H   0  0  0  0  0  0  0  0  0  0  0  0
    6.2427   -0.2889   12.6376 H   0  0  0  0  0  0  0  0  0  0  0  0
    8.7925   -0.9601   13.7382 H   0  0  0  0  0  0  0  0  0  0  0  0
    7.4268   -2.0569   15.3844 H   0  0  0  0  0  0  0  0  0  0  0  0
    8.0877   -2.8923   14.1189 H   0  0  0  0  0  0  0  0  0  0  0  0
    5.2380   -2.8566   14.6316 H   0  0  0  0  0  0  0  0  0  0  0  0
    5.6615   -1.4200   14.0986 H   0  0  0  0  0  0  0  0  0  0  0  0
   -3.2791    0.3358    8.7486 H   0  0  0  0  0  0  0  0  0  0  0  0
  1  2  1  0
  2  3  2  0
  2  4  2  0
  2  5  1  0
  5  6  1  0
  6  7  1  0
  7  8  1  0
  8  9  2  0
  9 10  1  0
 10 11  2  0
 11 12  1  0
 12 13  1  0
 13 14  1  0
 14 15  2  0
 14 16  1  0
 16 17  1  0
 17 18  1  0
 18 19  1  0
 19 20  1  0
 20 21  1  0
 21 22  1  0
 22 23  1  0
 12 24  2  0
 24  8  1  0
 23 18  1  0
  1 25  1  0
  1 26  1  0
  1 27  1  0
  5 28  1  0
  5 29  1  0
  6 30  1  0
  6 31  1  0
  9 32  1  0
 10 33  1  0
 11 34  1  0
 13 35  1  0
 16 36  1  0
 16 37  1  0
 18 38  1  0
 19 39  1  0
 19 40  1  0
 20 41  1  0
 20 42  1  0
 21 43  1  0
 22 44  1  0
 22 45  1  0
 23 46  1  0
 23 47  1  0
 24 48  1  0
M  END
>  <Energy>  (582) 
653.27910113571693

>  <compound_id>  (582) 
29999

>  <target_id>  (582) 
1

>  <reference_id>  (582) 
95

>  <inspiration_ids>  (582) 
[111, 95]

>  <energy_score>  (582) 
576.6882960507569

>  <distance_score>  (582) 
6.272664468867796

>  <path>  (582) 
/opt/xchem-fragalysis-2/maxwin/BulkDock/SCRATCH/511021/C29999-P95/C29999-P95.minimised.mol

>  <scratch_subdir>  (582) 
/opt/xchem-fragalysis-2/maxwin/BulkDock/SCRATCH/511021/C29999-P95

>  <fragmenstein_runtime>  (582) 
20.840150356292725

>  <fragmenstein_outcome>  (582) 
too moved

>  <fragmenstein_mode>  (582) 
expansion

>  <fragmenstein_error>  (582) 


$$$$
C51706-P48
     RDKit          3D

 54 58  0  0  0  0  0  0  0  0999 V2000
   -8.9221   -9.9682   18.7991 O   0  0  0  0  0  0  0  0  0  0  0  0
   -8.0017   -9.7892   18.0502 C   0  0  0  0  0  0  0  0  0  0  0  0
   -7.8516  -10.1116   16.6466 N   0  0  0  0  0  0  0  0  0  0  0  0
   -8.8112  -10.6673   15.6774 C   0  0  0  0  0  0  0  0  0  0  0  0
   -8.4515  -11.6650   14.5855 C   0  0  0  0  0  0  0  0  0  0  0  0
   -9.4605  -12.3709   13.8982 C   0  0  0  0  0  0  0  0  0  0  0  0
   -9.1752  -13.0819   12.7259 C   0  0  0  0  0  0  0  0  0  0  0  0
   -7.8806  -13.0665   12.2255 C   0  0  0  0  0  0  0  0  0  0  0  0
   -7.6100  -13.5146   10.9424 N   0  0  0  0  0  0  0  0  0  0  0  0
   -8.2996  -12.7949    9.8644 C   0  0  0  0  0  0  0  0  0  0  0  0
   -7.3064  -12.7768    8.6988 C   0  0  0  0  0  0  0  0  0  0  0  0
   -6.2767  -13.8344    9.0638 C   0  0  0  0  0  0  0  0  0  0  0  0
   -6.2052  -13.7036   10.5800 C   0  0  0  0  0  0  0  0  0  0  0  0
   -6.8869  -12.5041   12.9333 N   0  0  0  0  0  0  0  0  0  0  0  0
   -7.1871  -11.8133   14.0635 C   0  0  0  0  0  0  0  0  0  0  0  0
   -6.8851   -8.9868   18.7563 C   0  0  0  0  0  0  0  0  0  0  0  0
   -5.5808   -8.7816   18.3009 C   0  0  0  0  0  0  0  0  0  0  0  0
   -4.7056   -7.8544   18.9254 C   0  0  0  0  0  0  0  0  0  0  0  0
   -5.1816   -7.1230   20.0221 C   0  0  0  0  0  0  0  0  0  0  0  0
   -4.6798   -6.0083   20.6550 N   0  0  0  0  0  0  0  0  0  0  0  0
   -5.5162   -5.6211   21.6643 C   0  0  0  0  0  0  0  0  0  0  0  0
   -6.5829   -6.4917   21.6936 C   0  0  0  0  0  0  0  0  0  0  0  0
   -6.4158   -7.3886   20.6029 C   0  0  0  0  0  0  0  0  0  0  0  0
   -7.2531   -8.3310   19.9689 C   0  0  0  0  0  0  0  0  0  0  0  0
   -7.7573   -6.3031   22.5939 C   0  0  0  0  0  0  0  0  0  0  0  0
   -7.4729   -5.2509   23.6793 C   0  0  0  0  0  0  0  0  0  0  0  0
   -6.7089   -4.0287   23.1370 C   0  0  0  0  0  0  0  0  0  0  0  0
   -5.3566   -4.4038   22.5007 C   0  0  0  0  0  0  0  0  0  0  0  0
   -6.9733   -9.7411   16.3160 H   0  0  0  0  0  0  0  0  0  0  0  0
   -9.6389  -11.0650   16.2739 H   0  0  0  0  0  0  0  0  0  0  0  0
   -9.2121   -9.7839   15.1636 H   0  0  0  0  0  0  0  0  0  0  0  0
  -10.4929  -12.3084   14.2392 H   0  0  0  0  0  0  0  0  0  0  0  0
   -9.9673  -13.5669   12.1725 H   0  0  0  0  0  0  0  0  0  0  0  0
   -9.2152  -13.3260    9.5879 H   0  0  0  0  0  0  0  0  0  0  0  0
   -8.5684  -11.7661   10.1353 H   0  0  0  0  0  0  0  0  0  0  0  0
   -7.7895  -12.9724    7.7371 H   0  0  0  0  0  0  0  0  0  0  0  0
   -6.8255  -11.7930    8.6388 H   0  0  0  0  0  0  0  0  0  0  0  0
   -5.3100  -13.6703    8.5800 H   0  0  0  0  0  0  0  0  0  0  0  0
   -6.6427  -14.8289    8.7819 H   0  0  0  0  0  0  0  0  0  0  0  0
   -5.7842  -14.6023   11.0422 H   0  0  0  0  0  0  0  0  0  0  0  0
   -5.5853  -12.8359   10.8389 H   0  0  0  0  0  0  0  0  0  0  0  0
   -6.3319  -11.3197   14.5155 H   0  0  0  0  0  0  0  0  0  0  0  0
   -5.2181   -9.2999   17.4172 H   0  0  0  0  0  0  0  0  0  0  0  0
   -3.7286   -7.6539   18.4950 H   0  0  0  0  0  0  0  0  0  0  0  0
   -3.8693   -5.4962   20.3401 H   0  0  0  0  0  0  0  0  0  0  0  0
   -8.2585   -8.4481   20.3684 H   0  0  0  0  0  0  0  0  0  0  0  0
   -8.0341   -7.2531   23.0645 H   0  0  0  0  0  0  0  0  0  0  0  0
   -8.6124   -5.9735   21.9909 H   0  0  0  0  0  0  0  0  0  0  0  0
   -8.4183   -4.9289   24.1307 H   0  0  0  0  0  0  0  0  0  0  0  0
   -6.8865   -5.7134   24.4791 H   0  0  0  0  0  0  0  0  0  0  0  0
   -6.5438   -3.3035   23.9419 H   0  0  0  0  0  0  0  0  0  0  0  0
   -7.3354   -3.5308   22.3853 H   0  0  0  0  0  0  0  0  0  0  0  0
   -4.9963   -3.5612   21.9009 H   0  0  0  0  0  0  0  0  0  0  0  0
   -4.6130   -4.5984   23.2779 H   0  0  0  0  0  0  0  0  0  0  0  0
  1  2  2  0
  2  3  1  0
  3  4  1  0
  4  5  1  0
  5  6  2  0
  6  7  1  0
  7  8  2  0
  8  9  1  0
  9 10  1  0
 10 11  1  0
 11 12  1  0
 12 13  1  0
  8 14  1  0
 14 15  2  0
  2 16  1  0
 16 17  2  0
 17 18  1  0
 18 19  2  0
 19 20  1  0
 20 21  1  0
 21 22  2  0
 22 23  1  0
 23 24  2  0
 22 25  1  0
 25 26  1  0
 26 27  1  0
 27 28  1  0
 15  5  1  0
 24 16  1  0
 13  9  1  0
 23 19  1  0
 28 21  1  0
  3 29  1  0
  4 30  1  0
  4 31  1  0
  6 32  1  0
  7 33  1  0
 10 34  1  0
 10 35  1  0
 11 36  1  0
 11 37  1  0
 12 38  1  0
 12 39  1  0
 13 40  1  0
 13 41  1  0
 15 42  1  0
 17 43  1  0
 18 44  1  0
 20 45  1  0
 24 46  1  0
 25 47  1  0
 25 48  1  0
 26 49  1  0
 26 50  1  0
 27 51  1  0
 27 52  1  0
 28 53  1  0
 28 54  1  0
M  END
>  <Energy>  (583) 
21.068822428532595

>  <compound_id>  (583) 
51706

>  <target_id>  (583) 
1

>  <reference_id>  (583) 
48

>  <inspiration_ids>  (583) 
[48, 40]

>  <energy_score>  (583) 
-19.009993984637845

>  <distance_score>  (583) 
13.728213718731485

>  <path>  (583) 
/opt/xchem-fragalysis-2/maxwin/BulkDock/SCRATCH/511021/C51706-P48/C51706-P48.minimised.mol

>  <scratch_subdir>  (583) 
/opt/xchem-fragalysis-2/maxwin/BulkDock/SCRATCH/511021/C51706-P48

>  <fragmenstein_runtime>  (583) 
31.678645610809326

>  <fragmenstein_outcome>  (583) 
too moved

>  <fragmenstein_mode>  (583) 
expansion

>  <fragmenstein_error>  (583) 


$$$$
C51706-P40
     RDKit          3D

 54 58  0  0  0  0  0  0  0  0999 V2000
   -4.0687  -17.6752   21.5985 O   0  0  0  0  0  0  0  0  0  0  0  0
   -3.8800  -17.1904   20.5298 C   0  0  0  0  0  0  0  0  0  0  0  0
   -4.9282  -17.7621   19.1240 N   0  0  0  0  0  0  0  0  0  0  0  0
   -6.4238  -18.9547   19.0533 C   0  0  0  0  0  0  0  0  0  0  0  0
   -7.7853  -19.7899   17.9597 C   0  0  0  0  0  0  0  0  0  0  0  0
   -8.4515  -20.9277   17.8153 C   0  0  0  0  0  0  0  0  0  0  0  0
   -9.2814  -21.7772   16.4459 C   0  0  0  0  0  0  0  0  0  0  0  0
   -9.5528  -21.4417   15.2566 C   0  0  0  0  0  0  0  0  0  0  0  0
   -9.5922  -22.3037   14.1884 N   0  0  0  0  0  0  0  0  0  0  0  0
  -10.0009  -21.9136   12.8841 C   0  0  0  0  0  0  0  0  0  0  0  0
  -10.5552  -23.1957   12.2583 C   0  0  0  0  0  0  0  0  0  0  0  0
   -9.6964  -24.2645   12.8812 C   0  0  0  0  0  0  0  0  0  0  0  0
   -9.7394  -23.7597   14.3081 C   0  0  0  0  0  0  0  0  0  0  0  0
   -9.6907  -20.2203   15.7898 N   0  0  0  0  0  0  0  0  0  0  0  0
   -9.1023  -19.6265   17.3777 C   0  0  0  0  0  0  0  0  0  0  0  0
   -2.5411  -15.7573   20.7008 C   0  0  0  0  0  0  0  0  0  0  0  0
   -1.9213  -16.1526   21.8761 C   0  0  0  0  0  0  0  0  0  0  0  0
   -1.0230  -15.3790   22.7250 C   0  0  0  0  0  0  0  0  0  0  0  0
   -0.6307  -13.9854   22.7489 C   0  0  0  0  0  0  0  0  0  0  0  0
    0.1104  -13.1690   23.5877 N   0  0  0  0  0  0  0  0  0  0  0  0
    0.4896  -11.8528   23.4762 C   0  0  0  0  0  0  0  0  0  0  0  0
    0.6948  -11.9764   22.1659 C   0  0  0  0  0  0  0  0  0  0  0  0
   -0.5753  -13.3082   21.5850 C   0  0  0  0  0  0  0  0  0  0  0  0
   -1.6348  -14.2706   20.5123 C   0  0  0  0  0  0  0  0  0  0  0  0
    2.5790  -12.2546   22.8033 C   0  0  0  0  0  0  0  0  0  0  0  0
    3.5504  -11.2835   23.4657 C   0  0  0  0  0  0  0  0  0  0  0  0
    2.7093  -10.2806   24.0195 C   0  0  0  0  0  0  0  0  0  0  0  0
    1.5636  -11.2002   24.4899 C   0  0  0  0  0  0  0  0  0  0  0  0
   -4.5918  -17.3237   18.2781 H   0  0  0  0  0  0  0  0  0  0  0  0
   -6.8686  -18.8163   20.0425 H   0  0  0  0  0  0  0  0  0  0  0  0
   -5.7696  -19.8011   19.1881 H   0  0  0  0  0  0  0  0  0  0  0  0
   -8.9009  -21.2354   18.7738 H   0  0  0  0  0  0  0  0  0  0  0  0
   -9.5268  -22.8327   16.4638 H   0  0  0  0  0  0  0  0  0  0  0  0
   -9.1515  -21.5639   12.2938 H   0  0  0  0  0  0  0  0  0  0  0  0
  -10.7353  -21.1398   13.0094 H   0  0  0  0  0  0  0  0  0  0  0  0
  -10.4995  -23.2004   11.1807 H   0  0  0  0  0  0  0  0  0  0  0  0
  -11.6046  -23.3474   12.5415 H   0  0  0  0  0  0  0  0  0  0  0  0
  -10.1152  -25.2682   12.7690 H   0  0  0  0  0  0  0  0  0  0  0  0
   -8.6893  -24.2474   12.4581 H   0  0  0  0  0  0  0  0  0  0  0  0
   -9.0772  -24.2139   15.0312 H   0  0  0  0  0  0  0  0  0  0  0  0
  -10.7212  -24.0738   14.6327 H   0  0  0  0  0  0  0  0  0  0  0  0
   -9.5352  -18.6112   17.3353 H   0  0  0  0  0  0  0  0  0  0  0  0
   -2.0485  -17.1805   22.2275 H   0  0  0  0  0  0  0  0  0  0  0  0
   -0.5151  -16.0767   23.3819 H   0  0  0  0  0  0  0  0  0  0  0  0
    0.7840  -13.6298   24.1242 H   0  0  0  0  0  0  0  0  0  0  0  0
   -1.7019  -13.7568   19.5525 H   0  0  0  0  0  0  0  0  0  0  0  0
    3.2144  -12.6812   22.0276 H   0  0  0  0  0  0  0  0  0  0  0  0
    2.6302  -13.0424   23.5435 H   0  0  0  0  0  0  0  0  0  0  0  0
    4.1113  -11.7918   24.2531 H   0  0  0  0  0  0  0  0  0  0  0  0
    4.3477  -10.8862   22.8685 H   0  0  0  0  0  0  0  0  0  0  0  0
    3.2042   -9.7341   24.8310 H   0  0  0  0  0  0  0  0  0  0  0  0
    2.5058   -9.5274   23.2592 H   0  0  0  0  0  0  0  0  0  0  0  0
    1.8605  -12.1120   24.9875 H   0  0  0  0  0  0  0  0  0  0  0  0
    1.2973  -10.5003   25.2260 H   0  0  0  0  0  0  0  0  0  0  0  0
  1  2  2  0
  2  3  1  0
  3  4  1  0
  4  5  1  0
  5  6  2  0
  6  7  1  0
  7  8  2  0
  8  9  1  0
  9 10  1  0
 10 11  1  0
 11 12  1  0
 12 13  1  0
  8 14  1  0
 14 15  2  0
  2 16  1  0
 16 17  2  0
 17 18  1  0
 18 19  2  0
 19 20  1  0
 20 21  1  0
 21 22  2  0
 22 23  1  0
 23 24  2  0
 22 25  1  0
 25 26  1  0
 26 27  1  0
 27 28  1  0
 15  5  1  0
 24 16  1  0
 13  9  1  0
 23 19  1  0
 28 21  1  0
  3 29  1  0
  4 30  1  0
  4 31  1  0
  6 32  1  0
  7 33  1  0
 10 34  1  0
 10 35  1  0
 11 36  1  0
 11 37  1  0
 12 38  1  0
 12 39  1  0
 13 40  1  0
 13 41  1  0
 15 42  1  0
 17 43  1  0
 18 44  1  0
 20 45  1  0
 24 46  1  0
 25 47  1  0
 25 48  1  0
 26 49  1  0
 26 50  1  0
 27 51  1  0
 27 52  1  0
 28 53  1  0
 28 54  1  0
M  END
>  <Energy>  (584) 
1064.7193793146384

>  <compound_id>  (584) 
51706

>  <target_id>  (584) 
1

>  <reference_id>  (584) 
40

>  <inspiration_ids>  (584) 
[48, 40]

>  <energy_score>  (584) 
1024.6405629014662

>  <distance_score>  (584) 
11.775534172042683

>  <path>  (584) 
/opt/xchem-fragalysis-2/maxwin/BulkDock/SCRATCH/511021/C51706-P40/C51706-P40.minimised.mol

>  <scratch_subdir>  (584) 
/opt/xchem-fragalysis-2/maxwin/BulkDock/SCRATCH/511021/C51706-P40

>  <fragmenstein_runtime>  (584) 
19.314558029174805

>  <fragmenstein_outcome>  (584) 
too moved

>  <fragmenstein_mode>  (584) 
expansion

>  <fragmenstein_error>  (584) 


$$$$
C57331-P48
     RDKit          3D

 45 48  0  0  0  0  0  0  0  0999 V2000
   -6.5630  -18.6109   17.8551 O   0  0  0  0  0  0  0  0  0  0  0  0
   -7.5029  -18.3810   18.4327 C   0  0  0  0  0  0  0  0  0  0  0  0
   -9.3039  -18.4746   17.5476 N   0  0  0  0  0  0  0  0  0  0  0  0
   -9.8506  -19.0047   15.8804 C   0  0  0  0  0  0  0  0  0  0  0  0
   -9.9475  -20.7670   15.1177 C   0  0  0  0  0  0  0  0  0  0  0  0
   -9.6635  -21.9930   14.0933 C   0  0  0  0  0  0  0  0  0  0  0  0
  -10.5878  -22.2888   13.0777 C   0  0  0  0  0  0  0  0  0  0  0  0
  -10.5493  -23.4910   12.3646 C   0  0  0  0  0  0  0  0  0  0  0  0
   -9.5749  -24.4144   12.6726 C   0  0  0  0  0  0  0  0  0  0  0  0
   -8.6867  -24.0699   13.6729 C   0  0  0  0  0  0  0  0  0  0  0  0
   -8.7017  -22.8984   14.3690 N   0  0  0  0  0  0  0  0  0  0  0  0
   -7.0086  -18.0854   20.3427 C   0  0  0  0  0  0  0  0  0  0  0  0
   -6.5878  -18.9782   21.2476 C   0  0  0  0  0  0  0  0  0  0  0  0
   -6.5348  -18.6434   22.9067 C   0  0  0  0  0  0  0  0  0  0  0  0
   -6.8298  -17.3876   23.9706 C   0  0  0  0  0  0  0  0  0  0  0  0
   -7.2755  -16.4851   25.4645 N   0  0  0  0  0  0  0  0  0  0  0  0
   -7.7769  -15.2293   25.5008 C   0  0  0  0  0  0  0  0  0  0  0  0
   -6.9600  -15.2758   24.4328 C   0  0  0  0  0  0  0  0  0  0  0  0
   -7.6141  -16.6635   23.2335 C   0  0  0  0  0  0  0  0  0  0  0  0
   -7.5504  -17.0894   21.5257 C   0  0  0  0  0  0  0  0  0  0  0  0
   -5.7338  -14.3580   24.5860 C   0  0  0  0  0  0  0  0  0  0  0  0
   -5.4191  -14.0362   26.0712 C   0  0  0  0  0  0  0  0  0  0  0  0
   -6.6513  -13.4308   26.7614 C   0  0  0  0  0  0  0  0  0  0  0  0
   -7.8563  -14.3800   26.7080 C   0  0  0  0  0  0  0  0  0  0  0  0
  -10.0145  -18.3314   18.1938 H   0  0  0  0  0  0  0  0  0  0  0  0
  -10.8036  -18.5529   15.7004 H   0  0  0  0  0  0  0  0  0  0  0  0
   -9.3325  -18.1009   15.5719 H   0  0  0  0  0  0  0  0  0  0  0  0
   -9.9788  -21.4050   15.9798 H   0  0  0  0  0  0  0  0  0  0  0  0
  -10.6804  -20.3936   14.3979 H   0  0  0  0  0  0  0  0  0  0  0  0
  -11.3950  -21.5992   12.8869 H   0  0  0  0  0  0  0  0  0  0  0  0
  -11.2992  -23.7027   11.6100 H   0  0  0  0  0  0  0  0  0  0  0  0
   -9.5105  -25.3711   12.1694 H   0  0  0  0  0  0  0  0  0  0  0  0
   -7.9055  -24.7619   13.9757 H   0  0  0  0  0  0  0  0  0  0  0  0
   -5.8469  -19.6746   20.8357 H   0  0  0  0  0  0  0  0  0  0  0  0
   -5.7055  -18.0781   22.3353 H   0  0  0  0  0  0  0  0  0  0  0  0
   -7.0633  -16.8719   26.3797 H   0  0  0  0  0  0  0  0  0  0  0  0
   -8.3701  -17.7767   21.8330 H   0  0  0  0  0  0  0  0  0  0  0  0
   -4.8310  -14.7938   24.1646 H   0  0  0  0  0  0  0  0  0  0  0  0
   -6.0318  -13.4111   24.1322 H   0  0  0  0  0  0  0  0  0  0  0  0
   -5.1088  -14.9420   26.6053 H   0  0  0  0  0  0  0  0  0  0  0  0
   -4.5730  -13.3458   26.1241 H   0  0  0  0  0  0  0  0  0  0  0  0
   -6.9146  -12.4914   26.2586 H   0  0  0  0  0  0  0  0  0  0  0  0
   -6.4220  -13.1750   27.8018 H   0  0  0  0  0  0  0  0  0  0  0  0
   -8.7886  -13.8056   26.7109 H   0  0  0  0  0  0  0  0  0  0  0  0
   -7.8646  -15.0076   27.6074 H   0  0  0  0  0  0  0  0  0  0  0  0
  1  2  2  0
  2  3  1  0
  3  4  1  0
  4  5  1  0
  5  6  1  0
  6  7  2  0
  7  8  1  0
  8  9  2  0
  9 10  1  0
 10 11  2  0
  2 12  1  0
 12 13  2  0
 13 14  1  0
 14 15  2  0
 15 16  1  0
 16 17  1  0
 17 18  2  0
 18 19  1  0
 19 20  2  0
 18 21  1  0
 21 22  1  0
 22 23  1  0
 23 24  1  0
 11  6  1  0
 20 12  1  0
 19 15  1  0
 24 17  1  0
  3 25  1  0
  4 26  1  0
  4 27  1  0
  5 28  1  0
  5 29  1  0
  7 30  1  0
  8 31  1  0
  9 32  1  0
 10 33  1  0
 13 34  1  0
 14 35  1  0
 16 36  1  0
 20 37  1  0
 21 38  1  0
 21 39  1  0
 22 40  1  0
 22 41  1  0
 23 42  1  0
 23 43  1  0
 24 44  1  0
 24 45  1  0
M  END
>  <Energy>  (585) 
961.30010788644483

>  <compound_id>  (585) 
57331

>  <target_id>  (585) 
1

>  <reference_id>  (585) 
48

>  <inspiration_ids>  (585) 
[48, 40]

>  <energy_score>  (585) 
892.779559481659

>  <distance_score>  (585) 
13.996727530976006

>  <path>  (585) 
/opt/xchem-fragalysis-2/maxwin/BulkDock/SCRATCH/511021/C57331-P48/C57331-P48.minimised.mol

>  <scratch_subdir>  (585) 
/opt/xchem-fragalysis-2/maxwin/BulkDock/SCRATCH/511021/C57331-P48

>  <fragmenstein_runtime>  (585) 
19.73741126060486

>  <fragmenstein_outcome>  (585) 
too moved

>  <fragmenstein_mode>  (585) 
expansion

>  <fragmenstein_error>  (585) 


$$$$
C57331-P40
     RDKit          3D

 45 48  0  0  0  0  0  0  0  0999 V2000
   -8.0746  -10.5192   25.5321 O   0  0  0  0  0  0  0  0  0  0  0  0
   -7.5401  -11.1909   26.3853 C   0  0  0  0  0  0  0  0  0  0  0  0
   -7.0904  -12.8093   26.2859 N   0  0  0  0  0  0  0  0  0  0  0  0
   -7.3602  -14.0140   24.9968 C   0  0  0  0  0  0  0  0  0  0  0  0
   -6.8722  -15.8213   24.4056 C   0  0  0  0  0  0  0  0  0  0  0  0
   -7.2482  -17.1794   22.9664 C   0  0  0  0  0  0  0  0  0  0  0  0
   -6.6826  -18.4126   22.7348 C   0  0  0  0  0  0  0  0  0  0  0  0
   -6.2057  -18.9417   21.4103 C   0  0  0  0  0  0  0  0  0  0  0  0
   -6.1300  -18.2887   20.2833 C   0  0  0  0  0  0  0  0  0  0  0  0
   -6.7872  -17.2184   20.6225 C   0  0  0  0  0  0  0  0  0  0  0  0
   -7.6578  -16.9054   21.7303 N   0  0  0  0  0  0  0  0  0  0  0  0
   -7.2464  -10.1893   27.8513 C   0  0  0  0  0  0  0  0  0  0  0  0
   -7.6426  -10.5664   29.1206 C   0  0  0  0  0  0  0  0  0  0  0  0
   -7.3459   -9.7678   30.3166 C   0  0  0  0  0  0  0  0  0  0  0  0
   -6.3362   -8.7046   30.4043 C   0  0  0  0  0  0  0  0  0  0  0  0
   -5.2713   -8.6801   31.6192 N   0  0  0  0  0  0  0  0  0  0  0  0
   -3.7223   -8.3767   31.1573 C   0  0  0  0  0  0  0  0  0  0  0  0
   -3.8029   -7.7123   29.5124 C   0  0  0  0  0  0  0  0  0  0  0  0
   -5.7044   -8.1001   29.1001 C   0  0  0  0  0  0  0  0  0  0  0  0
   -6.6161   -8.7387   27.9092 C   0  0  0  0  0  0  0  0  0  0  0  0
   -2.2077   -7.2387   29.1576 C   0  0  0  0  0  0  0  0  0  0  0  0
   -1.1786   -7.0073   30.3202 C   0  0  0  0  0  0  0  0  0  0  0  0
   -1.4894   -7.3451   31.7742 C   0  0  0  0  0  0  0  0  0  0  0  0
   -2.4516   -8.4997   31.9947 C   0  0  0  0  0  0  0  0  0  0  0  0
   -6.5909  -13.0704   27.1275 H   0  0  0  0  0  0  0  0  0  0  0  0
   -7.1271  -13.3664   24.1526 H   0  0  0  0  0  0  0  0  0  0  0  0
   -8.4363  -14.1151   25.1687 H   0  0  0  0  0  0  0  0  0  0  0  0
   -7.1983  -16.2501   25.3454 H   0  0  0  0  0  0  0  0  0  0  0  0
   -5.8013  -15.6031   24.3563 H   0  0  0  0  0  0  0  0  0  0  0  0
   -6.2946  -18.8599   23.5866 H   0  0  0  0  0  0  0  0  0  0  0  0
   -5.5646  -19.7943   21.2348 H   0  0  0  0  0  0  0  0  0  0  0  0
   -5.6647  -18.5462   19.3561 H   0  0  0  0  0  0  0  0  0  0  0  0
   -6.9902  -16.5954   19.8030 H   0  0  0  0  0  0  0  0  0  0  0  0
   -8.2128  -11.4836   29.2463 H   0  0  0  0  0  0  0  0  0  0  0  0
   -7.6718  -10.2068   31.2632 H   0  0  0  0  0  0  0  0  0  0  0  0
   -5.4146   -9.2927   32.4040 H   0  0  0  0  0  0  0  0  0  0  0  0
   -6.7290   -8.1529   27.0210 H   0  0  0  0  0  0  0  0  0  0  0  0
   -2.2762   -6.4344   28.4861 H   0  0  0  0  0  0  0  0  0  0  0  0
   -1.5887   -7.8989   28.5792 H   0  0  0  0  0  0  0  0  0  0  0  0
   -0.2862   -7.6007   30.0627 H   0  0  0  0  0  0  0  0  0  0  0  0
   -0.8005   -5.9775   30.2742 H   0  0  0  0  0  0  0  0  0  0  0  0
   -1.8152   -6.4458   32.2962 H   0  0  0  0  0  0  0  0  0  0  0  0
   -0.5429   -7.5951   32.2739 H   0  0  0  0  0  0  0  0  0  0  0  0
   -1.9028   -9.3959   31.7012 H   0  0  0  0  0  0  0  0  0  0  0  0
   -2.6576   -8.6267   33.0578 H   0  0  0  0  0  0  0  0  0  0  0  0
  1  2  2  0
  2  3  1  0
  3  4  1  0
  4  5  1  0
  5  6  1  0
  6  7  2  0
  7  8  1  0
  8  9  2  0
  9 10  1  0
 10 11  2  0
  2 12  1  0
 12 13  2  0
 13 14  1  0
 14 15  2  0
 15 16  1  0
 16 17  1  0
 17 18  2  0
 18 19  1  0
 19 20  2  0
 18 21  1  0
 21 22  1  0
 22 23  1  0
 23 24  1  0
 11  6  1  0
 20 12  1  0
 19 15  1  0
 24 17  1  0
  3 25  1  0
  4 26  1  0
  4 27  1  0
  5 28  1  0
  5 29  1  0
  7 30  1  0
  8 31  1  0
  9 32  1  0
 10 33  1  0
 13 34  1  0
 14 35  1  0
 16 36  1  0
 20 37  1  0
 21 38  1  0
 21 39  1  0
 22 40  1  0
 22 41  1  0
 23 42  1  0
 23 43  1  0
 24 44  1  0
 24 45  1  0
M  END
>  <Energy>  (586) 
662.62186861148416

>  <compound_id>  (586) 
57331

>  <target_id>  (586) 
1

>  <reference_id>  (586) 
40

>  <inspiration_ids>  (586) 
[48, 40]

>  <energy_score>  (586) 
594.1013202066903

>  <distance_score>  (586) 
12.08734852584857

>  <path>  (586) 
/opt/xchem-fragalysis-2/maxwin/BulkDock/SCRATCH/511021/C57331-P40/C57331-P40.minimised.mol

>  <scratch_subdir>  (586) 
/opt/xchem-fragalysis-2/maxwin/BulkDock/SCRATCH/511021/C57331-P40

>  <fragmenstein_runtime>  (586) 
20.49478316307068

>  <fragmenstein_outcome>  (586) 
too moved

>  <fragmenstein_mode>  (586) 
expansion

>  <fragmenstein_error>  (586) 


$$$$
C57332-P48
     RDKit          3D

 48 51  0  0  0  0  0  0  0  0999 V2000
   -5.9460   -8.9317   21.0076 O   0  0  0  0  0  0  0  0  0  0  0  0
   -5.2713   -8.1635   20.3779 C   0  0  0  0  0  0  0  0  0  0  0  0
   -5.1242   -7.9867   18.9176 N   0  0  0  0  0  0  0  0  0  0  0  0
   -5.7004   -8.7846   17.7533 C   0  0  0  0  0  0  0  0  0  0  0  0
   -5.7788   -8.0925   16.3299 C   0  0  0  0  0  0  0  0  0  0  0  0
   -6.2734   -8.8709   15.0581 C   0  0  0  0  0  0  0  0  0  0  0  0
   -5.3858   -9.3133   14.0686 C   0  0  0  0  0  0  0  0  0  0  0  0
   -5.8535   -9.9766   12.9082 C   0  0  0  0  0  0  0  0  0  0  0  0
   -7.2146  -10.1646   12.7158 C   0  0  0  0  0  0  0  0  0  0  0  0
   -8.0447   -9.6486   13.6916 C   0  0  0  0  0  0  0  0  0  0  0  0
   -7.6047   -9.0067   14.8259 N   0  0  0  0  0  0  0  0  0  0  0  0
   -4.4801   -7.1683   21.2768 C   0  0  0  0  0  0  0  0  0  0  0  0
   -4.6069   -5.8165   21.0288 C   0  0  0  0  0  0  0  0  0  0  0  0
   -3.8621   -4.9309   21.8854 C   0  0  0  0  0  0  0  0  0  0  0  0
   -2.9100   -5.3359   23.4850 C   0  0  0  0  0  0  0  0  0  0  0  0
   -1.7493   -4.9658   24.2625 N   0  0  0  0  0  0  0  0  0  0  0  0
   -1.5968   -5.3952   25.6626 C   0  0  0  0  0  0  0  0  0  0  0  0
   -2.0654   -6.6498   25.4339 C   0  0  0  0  0  0  0  0  0  0  0  0
   -2.5806   -6.6070   23.6516 C   0  0  0  0  0  0  0  0  0  0  0  0
   -3.6459   -7.5414   22.4847 C   0  0  0  0  0  0  0  0  0  0  0  0
   -2.5464   -7.2747   26.9865 C   0  0  0  0  0  0  0  0  0  0  0  0
   -1.8053   -7.1933   28.7384 C   0  0  0  0  0  0  0  0  0  0  0  0
   -0.7492   -5.9925   29.5306 C   0  0  0  0  0  0  0  0  0  0  0  0
   -0.2993   -4.6391   28.7195 C   0  0  0  0  0  0  0  0  0  0  0  0
   -1.0897   -4.3972   27.3023 C   0  0  0  0  0  0  0  0  0  0  0  0
   -4.4040   -7.2980   18.7375 H   0  0  0  0  0  0  0  0  0  0  0  0
   -5.0767   -9.6823   17.6783 H   0  0  0  0  0  0  0  0  0  0  0  0
   -6.6963   -9.1131   18.0664 H   0  0  0  0  0  0  0  0  0  0  0  0
   -6.4297   -7.2136   16.4265 H   0  0  0  0  0  0  0  0  0  0  0  0
   -4.7826   -7.6916   16.1020 H   0  0  0  0  0  0  0  0  0  0  0  0
   -4.3180   -9.1480   14.1849 H   0  0  0  0  0  0  0  0  0  0  0  0
   -5.1415  -10.3328   12.1686 H   0  0  0  0  0  0  0  0  0  0  0  0
   -7.6084  -10.6699   11.8438 H   0  0  0  0  0  0  0  0  0  0  0  0
   -9.1251   -9.7342   13.6129 H   0  0  0  0  0  0  0  0  0  0  0  0
   -5.2535   -5.4194   20.2553 H   0  0  0  0  0  0  0  0  0  0  0  0
   -4.1729   -3.8569   21.8920 H   0  0  0  0  0  0  0  0  0  0  0  0
   -0.9452   -4.5426   23.8418 H   0  0  0  0  0  0  0  0  0  0  0  0
   -3.6749   -8.6297   22.6423 H   0  0  0  0  0  0  0  0  0  0  0  0
   -3.5513   -7.3378   27.2956 H   0  0  0  0  0  0  0  0  0  0  0  0
   -2.6219   -8.1822   26.4356 H   0  0  0  0  0  0  0  0  0  0  0  0
   -1.2103   -8.1130   28.8886 H   0  0  0  0  0  0  0  0  0  0  0  0
   -2.6270   -7.3148   29.4266 H   0  0  0  0  0  0  0  0  0  0  0  0
   -1.1151   -5.7408   30.5355 H   0  0  0  0  0  0  0  0  0  0  0  0
    0.1722   -6.5279   29.8183 H   0  0  0  0  0  0  0  0  0  0  0  0
    0.7908   -4.5954   28.5866 H   0  0  0  0  0  0  0  0  0  0  0  0
   -0.5544   -3.7971   29.3788 H   0  0  0  0  0  0  0  0  0  0  0  0
   -1.7871   -4.9878   27.8623 H   0  0  0  0  0  0  0  0  0  0  0  0
   -1.3306   -3.3212   27.3261 H   0  0  0  0  0  0  0  0  0  0  0  0
  1  2  2  0
  2  3  1  0
  3  4  1  0
  4  5  1  0
  5  6  1  0
  6  7  2  0
  7  8  1  0
  8  9  2  0
  9 10  1  0
 10 11  2  0
  2 12  1  0
 12 13  2  0
 13 14  1  0
 14 15  2  0
 15 16  1  0
 16 17  1  0
 17 18  2  0
 18 19  1  0
 19 20  2  0
 18 21  1  0
 21 22  1  0
 22 23  1  0
 23 24  1  0
 24 25  1  0
 11  6  1  0
 20 12  1  0
 19 15  1  0
 25 17  1  0
  3 26  1  0
  4 27  1  0
  4 28  1  0
  5 29  1  0
  5 30  1  0
  7 31  1  0
  8 32  1  0
  9 33  1  0
 10 34  1  0
 13 35  1  0
 14 36  1  0
 16 37  1  0
 20 38  1  0
 21 39  1  0
 21 40  1  0
 22 41  1  0
 22 42  1  0
 23 43  1  0
 23 44  1  0
 24 45  1  0
 24 46  1  0
 25 47  1  0
 25 48  1  0
M  END
>  <Energy>  (587) 
546.76612404148352

>  <compound_id>  (587) 
57332

>  <target_id>  (587) 
1

>  <reference_id>  (587) 
48

>  <inspiration_ids>  (587) 
[48, 40]

>  <energy_score>  (587) 
489.96366991830723

>  <distance_score>  (587) 
13.33978419423868

>  <path>  (587) 
/opt/xchem-fragalysis-2/maxwin/BulkDock/SCRATCH/511021/C57332-P48/C57332-P48.minimised.mol

>  <scratch_subdir>  (587) 
/opt/xchem-fragalysis-2/maxwin/BulkDock/SCRATCH/511021/C57332-P48

>  <fragmenstein_runtime>  (587) 
30.65132451057434

>  <fragmenstein_outcome>  (587) 
too moved

>  <fragmenstein_mode>  (587) 
expansion

>  <fragmenstein_error>  (587) 


$$$$
C57332-P40
     RDKit          3D

 48 51  0  0  0  0  0  0  0  0999 V2000
   -4.9224   -8.7981   13.9675 O   0  0  0  0  0  0  0  0  0  0  0  0
   -5.9409   -8.7758   14.5993 C   0  0  0  0  0  0  0  0  0  0  0  0
   -7.2813   -9.2338   14.2563 N   0  0  0  0  0  0  0  0  0  0  0  0
   -7.7949   -9.9701   13.0424 C   0  0  0  0  0  0  0  0  0  0  0  0
   -9.0321  -10.9153   13.3008 C   0  0  0  0  0  0  0  0  0  0  0  0
   -9.4406  -12.0933   12.3827 C   0  0  0  0  0  0  0  0  0  0  0  0
   -9.1677  -12.1558   11.0198 C   0  0  0  0  0  0  0  0  0  0  0  0
   -9.6832  -13.2171   10.2455 C   0  0  0  0  0  0  0  0  0  0  0  0
  -10.4763  -14.1952   10.8314 C   0  0  0  0  0  0  0  0  0  0  0  0
  -10.7045  -14.0774   12.1865 C   0  0  0  0  0  0  0  0  0  0  0  0
  -10.2088  -13.0683   12.9587 N   0  0  0  0  0  0  0  0  0  0  0  0
   -5.7573   -8.2703   16.0443 C   0  0  0  0  0  0  0  0  0  0  0  0
   -5.6786   -9.1540   17.1374 C   0  0  0  0  0  0  0  0  0  0  0  0
   -5.4084   -8.7345   18.4630 C   0  0  0  0  0  0  0  0  0  0  0  0
   -5.2604   -7.3649   18.6784 C   0  0  0  0  0  0  0  0  0  0  0  0
   -5.1414   -6.6390   19.8431 N   0  0  0  0  0  0  0  0  0  0  0  0
   -5.3553   -5.3138   19.5476 C   0  0  0  0  0  0  0  0  0  0  0  0
   -5.1122   -5.1504   18.1982 C   0  0  0  0  0  0  0  0  0  0  0  0
   -5.2524   -6.4514   17.6243 C   0  0  0  0  0  0  0  0  0  0  0  0
   -5.4540   -6.9227   16.2954 C   0  0  0  0  0  0  0  0  0  0  0  0
   -5.0046   -3.8515   17.4695 C   0  0  0  0  0  0  0  0  0  0  0  0
   -6.2630   -2.9937   17.5569 C   0  0  0  0  0  0  0  0  0  0  0  0
   -6.5197   -2.4110   18.9489 C   0  0  0  0  0  0  0  0  0  0  0  0
   -6.9809   -3.4364   19.9861 C   0  0  0  0  0  0  0  0  0  0  0  0
   -5.8746   -4.3407   20.5367 C   0  0  0  0  0  0  0  0  0  0  0  0
   -7.9149   -8.9821   14.9977 H   0  0  0  0  0  0  0  0  0  0  0  0
   -6.9529  -10.5439   12.6407 H   0  0  0  0  0  0  0  0  0  0  0  0
   -8.0578   -9.2090   12.3005 H   0  0  0  0  0  0  0  0  0  0  0  0
   -9.9161  -10.2685   13.3810 H   0  0  0  0  0  0  0  0  0  0  0  0
   -8.9097  -11.3571   14.2931 H   0  0  0  0  0  0  0  0  0  0  0  0
   -8.5733  -11.3857   10.5382 H   0  0  0  0  0  0  0  0  0  0  0  0
   -9.4679  -13.2591    9.1807 H   0  0  0  0  0  0  0  0  0  0  0  0
  -10.8916  -15.0134   10.2554 H   0  0  0  0  0  0  0  0  0  0  0  0
  -11.3085  -14.8050   12.7195 H   0  0  0  0  0  0  0  0  0  0  0  0
   -5.7989  -10.2181   16.9630 H   0  0  0  0  0  0  0  0  0  0  0  0
   -5.3557   -9.4571   19.2712 H   0  0  0  0  0  0  0  0  0  0  0  0
   -5.1733   -7.0453   20.7669 H   0  0  0  0  0  0  0  0  0  0  0  0
   -5.4346   -6.2214   15.4650 H   0  0  0  0  0  0  0  0  0  0  0  0
   -4.7838   -4.0419   16.4124 H   0  0  0  0  0  0  0  0  0  0  0  0
   -4.1451   -3.2929   17.8607 H   0  0  0  0  0  0  0  0  0  0  0  0
   -6.1477   -2.1545   16.8593 H   0  0  0  0  0  0  0  0  0  0  0  0
   -7.1393   -3.5621   17.2213 H   0  0  0  0  0  0  0  0  0  0  0  0
   -7.3130   -1.6591   18.8495 H   0  0  0  0  0  0  0  0  0  0  0  0
   -5.6315   -1.8783   19.3095 H   0  0  0  0  0  0  0  0  0  0  0  0
   -7.4042   -2.8830   20.8345 H   0  0  0  0  0  0  0  0  0  0  0  0
   -7.7985   -4.0411   19.5735 H   0  0  0  0  0  0  0  0  0  0  0  0
   -5.0714   -3.7382   20.9610 H   0  0  0  0  0  0  0  0  0  0  0  0
   -6.3357   -4.9196   21.3422 H   0  0  0  0  0  0  0  0  0  0  0  0
  1  2  2  0
  2  3  1  0
  3  4  1  0
  4  5  1  0
  5  6  1  0
  6  7  2  0
  7  8  1  0
  8  9  2  0
  9 10  1  0
 10 11  2  0
  2 12  1  0
 12 13  2  0
 13 14  1  0
 14 15  2  0
 15 16  1  0
 16 17  1  0
 17 18  2  0
 18 19  1  0
 19 20  2  0
 18 21  1  0
 21 22  1  0
 22 23  1  0
 23 24  1  0
 24 25  1  0
 11  6  1  0
 20 12  1  0
 19 15  1  0
 25 17  1  0
  3 26  1  0
  4 27  1  0
  4 28  1  0
  5 29  1  0
  5 30  1  0
  7 31  1  0
  8 32  1  0
  9 33  1  0
 10 34  1  0
 13 35  1  0
 14 36  1  0
 16 37  1  0
 20 38  1  0
 21 39  1  0
 21 40  1  0
 22 41  1  0
 22 42  1  0
 23 43  1  0
 23 44  1  0
 24 45  1  0
 24 46  1  0
 25 47  1  0
 25 48  1  0
M  END
>  <Energy>  (588) 
64.910769264653851

>  <compound_id>  (588) 
57332

>  <target_id>  (588) 
1

>  <reference_id>  (588) 
40

>  <inspiration_ids>  (588) 
[48, 40]

>  <energy_score>  (588) 
8.108315141477703

>  <distance_score>  (588) 
14.510345752473427

>  <path>  (588) 
/opt/xchem-fragalysis-2/maxwin/BulkDock/SCRATCH/511021/C57332-P40/C57332-P40.minimised.mol

>  <scratch_subdir>  (588) 
/opt/xchem-fragalysis-2/maxwin/BulkDock/SCRATCH/511021/C57332-P40

>  <fragmenstein_runtime>  (588) 
44.59226703643799

>  <fragmenstein_outcome>  (588) 
too moved

>  <fragmenstein_mode>  (588) 
expansion

>  <fragmenstein_error>  (588) 


$$$$
C57333-P48
     RDKit          3D

 45 48  0  0  0  0  0  0  0  0999 V2000
   -1.8916  -13.1938   26.2389 O   0  0  0  0  0  0  0  0  0  0  0  0
   -2.6583  -12.5309   26.8658 C   0  0  0  0  0  0  0  0  0  0  0  0
   -3.9938  -12.8398   27.3409 N   0  0  0  0  0  0  0  0  0  0  0  0
   -4.8043  -14.1328   27.2833 C   0  0  0  0  0  0  0  0  0  0  0  0
   -5.1841  -15.1034   26.0504 C   0  0  0  0  0  0  0  0  0  0  0  0
   -4.2149  -15.8006   25.3164 C   0  0  0  0  0  0  0  0  0  0  0  0
   -4.5282  -16.9807   24.5724 C   0  0  0  0  0  0  0  0  0  0  0  0
   -5.8290  -17.4656   24.5514 C   0  0  0  0  0  0  0  0  0  0  0  0
   -6.1922  -18.5248   23.7912 F   0  0  0  0  0  0  0  0  0  0  0  0
   -6.7608  -16.7108   25.2450 C   0  0  0  0  0  0  0  0  0  0  0  0
   -6.4811  -15.5666   25.9782 N   0  0  0  0  0  0  0  0  0  0  0  0
   -1.8821  -10.8747   27.2836 C   0  0  0  0  0  0  0  0  0  0  0  0
   -2.1407   -9.6201   26.1071 C   0  0  0  0  0  0  0  0  0  0  0  0
   -2.3862   -7.8322   26.6847 C   0  0  0  0  0  0  0  0  0  0  0  0
   -1.9400   -7.5436   28.3708 C   0  0  0  0  0  0  0  0  0  0  0  0
   -1.5836   -6.4042   29.0429 N   0  0  0  0  0  0  0  0  0  0  0  0
   -1.0267   -6.5119   30.2848 C   0  0  0  0  0  0  0  0  0  0  0  0
   -0.3920   -7.6944   30.0960 C   0  0  0  0  0  0  0  0  0  0  0  0
   -1.0889   -8.5003   29.1292 C   0  0  0  0  0  0  0  0  0  0  0  0
   -1.0380  -10.0123   28.6013 C   0  0  0  0  0  0  0  0  0  0  0  0
    0.9960   -7.7281   30.4478 C   0  0  0  0  0  0  0  0  0  0  0  0
    1.7440   -6.3624   30.2231 C   0  0  0  0  0  0  0  0  0  0  0  0
    1.7467   -5.5075   31.4901 C   0  0  0  0  0  0  0  0  0  0  0  0
    0.3765   -5.4280   32.1481 C   0  0  0  0  0  0  0  0  0  0  0  0
   -0.7344   -5.2766   31.1218 C   0  0  0  0  0  0  0  0  0  0  0  0
   -4.3265  -12.0715   27.9160 H   0  0  0  0  0  0  0  0  0  0  0  0
   -5.7673  -13.8478   27.7250 H   0  0  0  0  0  0  0  0  0  0  0  0
   -4.3102  -14.7912   28.0089 H   0  0  0  0  0  0  0  0  0  0  0  0
   -3.1910  -15.4622   25.3834 H   0  0  0  0  0  0  0  0  0  0  0  0
   -3.7506  -17.4941   24.0177 H   0  0  0  0  0  0  0  0  0  0  0  0
   -7.8060  -16.9973   25.2386 H   0  0  0  0  0  0  0  0  0  0  0  0
   -2.0471   -9.8079   25.0222 H   0  0  0  0  0  0  0  0  0  0  0  0
   -2.3893   -6.9857   26.0251 H   0  0  0  0  0  0  0  0  0  0  0  0
   -1.5759   -5.5322   28.5202 H   0  0  0  0  0  0  0  0  0  0  0  0
    0.0505  -10.0218   28.6233 H   0  0  0  0  0  0  0  0  0  0  0  0
    1.0475   -8.0129   31.4939 H   0  0  0  0  0  0  0  0  0  0  0  0
    1.3796   -8.4655   29.7349 H   0  0  0  0  0  0  0  0  0  0  0  0
    1.3110   -5.7811   29.4032 H   0  0  0  0  0  0  0  0  0  0  0  0
    2.7810   -6.4973   29.9017 H   0  0  0  0  0  0  0  0  0  0  0  0
    2.0911   -4.4990   31.2303 H   0  0  0  0  0  0  0  0  0  0  0  0
    2.4631   -5.9029   32.2181 H   0  0  0  0  0  0  0  0  0  0  0  0
    0.1986   -6.3104   32.7750 H   0  0  0  0  0  0  0  0  0  0  0  0
    0.3677   -4.5669   32.8276 H   0  0  0  0  0  0  0  0  0  0  0  0
   -0.5097   -4.4303   30.4589 H   0  0  0  0  0  0  0  0  0  0  0  0
   -1.6249   -4.9960   31.6746 H   0  0  0  0  0  0  0  0  0  0  0  0
  1  2  2  0
  2  3  1  0
  3  4  1  0
  4  5  1  0
  5  6  2  0
  6  7  1  0
  7  8  2  0
  8  9  1  0
  8 10  1  0
 10 11  2  0
  2 12  1  0
 12 13  2  0
 13 14  1  0
 14 15  2  0
 15 16  1  0
 16 17  1  0
 17 18  2  0
 18 19  1  0
 19 20  2  0
 18 21  1  0
 21 22  1  0
 22 23  1  0
 23 24  1  0
 24 25  1  0
 11  5  1  0
 20 12  1  0
 19 15  1  0
 25 17  1  0
  3 26  1  0
  4 27  1  0
  4 28  1  0
  6 29  1  0
  7 30  1  0
 10 31  1  0
 13 32  1  0
 14 33  1  0
 16 34  1  0
 20 35  1  0
 21 36  1  0
 21 37  1  0
 22 38  1  0
 22 39  1  0
 23 40  1  0
 23 41  1  0
 24 42  1  0
 24 43  1  0
 25 44  1  0
 25 45  1  0
M  END
>  <Energy>  (589) 
424.07498335614753

>  <compound_id>  (589) 
57333

>  <target_id>  (589) 
1

>  <reference_id>  (589) 
48

>  <inspiration_ids>  (589) 
[48, 40]

>  <energy_score>  (589) 
228.31423084987557

>  <distance_score>  (589) 
12.996236465177041

>  <path>  (589) 
/opt/xchem-fragalysis-2/maxwin/BulkDock/SCRATCH/511021/C57333-P48/C57333-P48.minimised.mol

>  <scratch_subdir>  (589) 
/opt/xchem-fragalysis-2/maxwin/BulkDock/SCRATCH/511021/C57333-P48

>  <fragmenstein_runtime>  (589) 
36.4350528717041

>  <fragmenstein_outcome>  (589) 
too moved

>  <fragmenstein_mode>  (589) 
expansion

>  <fragmenstein_error>  (589) 


$$$$
C57333-P40
     RDKit          3D

 45 48  0  0  0  0  0  0  0  0999 V2000
   -9.0975  -18.3874   24.0488 O   0  0  0  0  0  0  0  0  0  0  0  0
   -8.0884  -19.0417   24.0734 C   0  0  0  0  0  0  0  0  0  0  0  0
   -7.8807  -20.4686   23.8806 N   0  0  0  0  0  0  0  0  0  0  0  0
   -8.8586  -21.5845   23.6930 C   0  0  0  0  0  0  0  0  0  0  0  0
   -9.1628  -22.4014   22.4033 C   0  0  0  0  0  0  0  0  0  0  0  0
  -10.3857  -22.2334   21.7321 C   0  0  0  0  0  0  0  0  0  0  0  0
  -10.8061  -23.1499   20.7526 C   0  0  0  0  0  0  0  0  0  0  0  0
   -9.9888  -24.2109   20.4131 C   0  0  0  0  0  0  0  0  0  0  0  0
  -10.3242  -25.0593   19.4258 F   0  0  0  0  0  0  0  0  0  0  0  0
   -8.8128  -24.3498   21.1214 C   0  0  0  0  0  0  0  0  0  0  0  0
   -8.3957  -23.4942   22.1146 N   0  0  0  0  0  0  0  0  0  0  0  0
   -6.8655  -18.1617   24.4919 C   0  0  0  0  0  0  0  0  0  0  0  0
   -5.5272  -18.3663   24.1465 C   0  0  0  0  0  0  0  0  0  0  0  0
   -4.4838  -17.4876   24.5714 C   0  0  0  0  0  0  0  0  0  0  0  0
   -4.8030  -16.3918   25.3882 C   0  0  0  0  0  0  0  0  0  0  0  0
   -4.0128  -15.4252   25.9697 N   0  0  0  0  0  0  0  0  0  0  0  0
   -4.7539  -14.7010   26.8667 C   0  0  0  0  0  0  0  0  0  0  0  0
   -6.0879  -15.0180   26.6696 C   0  0  0  0  0  0  0  0  0  0  0  0
   -6.1139  -16.1377   25.7749 C   0  0  0  0  0  0  0  0  0  0  0  0
   -7.1333  -17.0205   25.3108 C   0  0  0  0  0  0  0  0  0  0  0  0
   -7.2752  -14.4630   27.3974 C   0  0  0  0  0  0  0  0  0  0  0  0
   -7.0105  -13.1611   28.1509 C   0  0  0  0  0  0  0  0  0  0  0  0
   -6.1554  -13.3234   29.4123 C   0  0  0  0  0  0  0  0  0  0  0  0
   -4.8457  -14.1025   29.2560 C   0  0  0  0  0  0  0  0  0  0  0  0
   -4.1230  -13.8741   27.9287 C   0  0  0  0  0  0  0  0  0  0  0  0
   -6.9080  -20.6868   24.0532 H   0  0  0  0  0  0  0  0  0  0  0  0
   -8.5678  -22.3243   24.4499 H   0  0  0  0  0  0  0  0  0  0  0  0
   -9.8159  -21.1756   24.0414 H   0  0  0  0  0  0  0  0  0  0  0  0
  -11.0481  -21.4154   22.0037 H   0  0  0  0  0  0  0  0  0  0  0  0
  -11.7716  -23.0222   20.2750 H   0  0  0  0  0  0  0  0  0  0  0  0
   -8.1361  -25.1715   20.9092 H   0  0  0  0  0  0  0  0  0  0  0  0
   -5.2603  -19.1933   23.4935 H   0  0  0  0  0  0  0  0  0  0  0  0
   -3.4598  -17.6740   24.2618 H   0  0  0  0  0  0  0  0  0  0  0  0
   -3.0084  -15.3943   25.8983 H   0  0  0  0  0  0  0  0  0  0  0  0
   -8.1550  -16.8280   25.6310 H   0  0  0  0  0  0  0  0  0  0  0  0
   -8.0662  -14.2746   26.6601 H   0  0  0  0  0  0  0  0  0  0  0  0
   -7.6606  -15.2205   28.0910 H   0  0  0  0  0  0  0  0  0  0  0  0
   -6.5499  -12.4263   27.4794 H   0  0  0  0  0  0  0  0  0  0  0  0
   -7.9735  -12.7307   28.4536 H   0  0  0  0  0  0  0  0  0  0  0  0
   -6.7534  -13.8108   30.1927 H   0  0  0  0  0  0  0  0  0  0  0  0
   -5.9286  -12.3232   29.7972 H   0  0  0  0  0  0  0  0  0  0  0  0
   -4.1729  -13.8320   30.0712 H   0  0  0  0  0  0  0  0  0  0  0  0
   -5.0487  -15.1731   29.3970 H   0  0  0  0  0  0  0  0  0  0  0  0
   -4.1070  -12.8192   27.6498 H   0  0  0  0  0  0  0  0  0  0  0  0
   -3.0845  -14.1980   28.0554 H   0  0  0  0  0  0  0  0  0  0  0  0
  1  2  2  0
  2  3  1  0
  3  4  1  0
  4  5  1  0
  5  6  2  0
  6  7  1  0
  7  8  2  0
  8  9  1  0
  8 10  1  0
 10 11  2  0
  2 12  1  0
 12 13  2  0
 13 14  1  0
 14 15  2  0
 15 16  1  0
 16 17  1  0
 17 18  2  0
 18 19  1  0
 19 20  2  0
 18 21  1  0
 21 22  1  0
 22 23  1  0
 23 24  1  0
 24 25  1  0
 11  5  1  0
 20 12  1  0
 19 15  1  0
 25 17  1  0
  3 26  1  0
  4 27  1  0
  4 28  1  0
  6 29  1  0
  7 30  1  0
 10 31  1  0
 13 32  1  0
 14 33  1  0
 16 34  1  0
 20 35  1  0
 21 36  1  0
 21 37  1  0
 22 38  1  0
 22 39  1  0
 23 40  1  0
 23 41  1  0
 24 42  1  0
 24 43  1  0
 25 44  1  0
 25 45  1  0
M  END
>  <Energy>  (590) 
78.976949214210336

>  <compound_id>  (590) 
57333

>  <target_id>  (590) 
1

>  <reference_id>  (590) 
40

>  <inspiration_ids>  (590) 
[48, 40]

>  <energy_score>  (590) 
-116.78380329205515

>  <distance_score>  (590) 
14.006146490634364

>  <path>  (590) 
/opt/xchem-fragalysis-2/maxwin/BulkDock/SCRATCH/511021/C57333-P40/C57333-P40.minimised.mol

>  <scratch_subdir>  (590) 
/opt/xchem-fragalysis-2/maxwin/BulkDock/SCRATCH/511021/C57333-P40

>  <fragmenstein_runtime>  (590) 
23.91122317314148

>  <fragmenstein_outcome>  (590) 
too moved

>  <fragmenstein_mode>  (590) 
expansion

>  <fragmenstein_error>  (590) 


$$$$
C57334-P48
     RDKit          3D

 40 44  0  0  0  0  0  0  0  0999 V2000
   -6.2910  -19.1296   18.9320 F   0  0  0  0  0  0  0  0  0  0  0  0
   -5.7702  -18.4996   19.9809 C   0  0  0  0  0  0  0  0  0  0  0  0
   -6.3351  -18.4395   21.1842 C   0  0  0  0  0  0  0  0  0  0  0  0
   -5.7019  -17.5557   22.1479 C   0  0  0  0  0  0  0  0  0  0  0  0
   -4.4279  -16.2817   22.2198 C   0  0  0  0  0  0  0  0  0  0  0  0
   -3.9512  -14.9136   23.7066 C   0  0  0  0  0  0  0  0  0  0  0  0
   -2.9595  -15.3785   24.6966 N   0  0  0  0  0  0  0  0  0  0  0  0
   -2.4097  -14.2074   25.8398 O   0  0  0  0  0  0  0  0  0  0  0  0
   -3.0303  -12.8018   25.8008 C   0  0  0  0  0  0  0  0  0  0  0  0
   -2.6784  -11.9168   27.4611 C   0  0  0  0  0  0  0  0  0  0  0  0
   -1.7375  -10.8890   27.4449 C   0  0  0  0  0  0  0  0  0  0  0  0
   -0.6742   -9.7355   28.3051 C   0  0  0  0  0  0  0  0  0  0  0  0
   -0.8848   -9.3926   29.5610 C   0  0  0  0  0  0  0  0  0  0  0  0
   -1.2539   -8.0502   30.0718 N   0  0  0  0  0  0  0  0  0  0  0  0
   -1.8557   -8.1757   31.3955 C   0  0  0  0  0  0  0  0  0  0  0  0
   -1.2241   -9.3999   31.5221 C   0  0  0  0  0  0  0  0  0  0  0  0
   -1.5325  -10.4532   30.1942 C   0  0  0  0  0  0  0  0  0  0  0  0
   -2.5134  -11.6529   29.1392 C   0  0  0  0  0  0  0  0  0  0  0  0
    0.2900   -8.4282   31.8827 C   0  0  0  0  0  0  0  0  0  0  0  0
    0.4879   -6.8696   31.7876 C   0  0  0  0  0  0  0  0  0  0  0  0
   -0.6956   -6.1230   32.2986 C   0  0  0  0  0  0  0  0  0  0  0  0
   -1.7065   -7.1918   32.5613 C   0  0  0  0  0  0  0  0  0  0  0  0
   -4.0321  -12.9936   24.3607 N   0  0  0  0  0  0  0  0  0  0  0  0
   -3.8046  -16.6292   21.0114 N   0  0  0  0  0  0  0  0  0  0  0  0
   -4.6499  -17.7052   19.9404 C   0  0  0  0  0  0  0  0  0  0  0  0
   -7.2260  -18.9800   21.4567 H   0  0  0  0  0  0  0  0  0  0  0  0
   -6.2904  -17.7297   23.0820 H   0  0  0  0  0  0  0  0  0  0  0  0
   -2.0045  -10.3523   26.4883 H   0  0  0  0  0  0  0  0  0  0  0  0
   -0.3691   -8.8774   27.7580 H   0  0  0  0  0  0  0  0  0  0  0  0
   -1.2057   -7.1954   29.5295 H   0  0  0  0  0  0  0  0  0  0  0  0
   -3.1693  -12.3704   29.6503 H   0  0  0  0  0  0  0  0  0  0  0  0
    0.4976   -8.6228   32.9288 H   0  0  0  0  0  0  0  0  0  0  0  0
    0.9348   -8.6264   31.0395 H   0  0  0  0  0  0  0  0  0  0  0  0
    0.7010   -6.5621   30.7542 H   0  0  0  0  0  0  0  0  0  0  0  0
    1.3917   -6.5924   32.3456 H   0  0  0  0  0  0  0  0  0  0  0  0
   -1.0462   -5.3899   31.5652 H   0  0  0  0  0  0  0  0  0  0  0  0
   -0.4565   -5.5781   33.2183 H   0  0  0  0  0  0  0  0  0  0  0  0
   -1.3859   -7.7717   33.4451 H   0  0  0  0  0  0  0  0  0  0  0  0
   -2.5408   -6.7528   33.0020 H   0  0  0  0  0  0  0  0  0  0  0  0
   -4.3943  -17.4298   18.8997 H   0  0  0  0  0  0  0  0  0  0  0  0
  1  2  1  0
  2  3  2  0
  3  4  1  0
  4  5  2  0
  5  6  1  0
  6  7  2  0
  7  8  1  0
  8  9  1  0
  9 10  1  0
 10 11  2  0
 11 12  1  0
 12 13  2  0
 13 14  1  0
 14 15  1  0
 15 16  2  0
 16 17  1  0
 17 18  2  0
 16 19  1  0
 19 20  1  0
 20 21  1  0
 21 22  1  0
  9 23  2  0
  5 24  1  0
 24 25  2  0
 25  2  1  0
 23  6  1  0
 18 10  1  0
 17 13  1  0
 22 15  1  0
  3 26  1  0
  4 27  1  0
 11 28  1  0
 12 29  1  0
 14 30  1  0
 18 31  1  0
 19 32  1  0
 19 33  1  0
 20 34  1  0
 20 35  1  0
 21 36  1  0
 21 37  1  0
 22 38  1  0
 22 39  1  0
 25 40  1  0
M  END
>  <Energy>  (591) 
1187.9679911856815

>  <compound_id>  (591) 
57334

>  <target_id>  (591) 
1

>  <reference_id>  (591) 
48

>  <inspiration_ids>  (591) 
[48, 40]

>  <energy_score>  (591) 
1041.7758533932974

>  <distance_score>  (591) 
11.401115858319665

>  <path>  (591) 
/opt/xchem-fragalysis-2/maxwin/BulkDock/SCRATCH/511021/C57334-P48/C57334-P48.minimised.mol

>  <scratch_subdir>  (591) 
/opt/xchem-fragalysis-2/maxwin/BulkDock/SCRATCH/511021/C57334-P48

>  <fragmenstein_runtime>  (591) 
11.613015413284302

>  <fragmenstein_outcome>  (591) 
too moved

>  <fragmenstein_mode>  (591) 
expansion

>  <fragmenstein_error>  (591) 


$$$$
C57334-P40
     RDKit          3D

 40 44  0  0  0  0  0  0  0  0999 V2000
   -6.5508  -19.0735   19.0858 F   0  0  0  0  0  0  0  0  0  0  0  0
   -5.8392  -18.4195   20.0039 C   0  0  0  0  0  0  0  0  0  0  0  0
   -4.7283  -17.7106   19.6762 C   0  0  0  0  0  0  0  0  0  0  0  0
   -3.8780  -16.6672   20.6299 C   0  0  0  0  0  0  0  0  0  0  0  0
   -4.2619  -16.4191   21.9356 C   0  0  0  0  0  0  0  0  0  0  0  0
   -3.8575  -15.0616   23.3209 C   0  0  0  0  0  0  0  0  0  0  0  0
   -4.7368  -13.9911   23.5101 N   0  0  0  0  0  0  0  0  0  0  0  0
   -3.8597  -12.6220   24.2670 O   0  0  0  0  0  0  0  0  0  0  0  0
   -2.5363  -13.2091   25.1735 C   0  0  0  0  0  0  0  0  0  0  0  0
   -2.7841  -12.5485   26.7355 C   0  0  0  0  0  0  0  0  0  0  0  0
   -3.1380  -13.0417   27.9788 C   0  0  0  0  0  0  0  0  0  0  0  0
   -3.0808  -12.3728   29.2555 C   0  0  0  0  0  0  0  0  0  0  0  0
   -2.0795  -11.3079   29.5424 C   0  0  0  0  0  0  0  0  0  0  0  0
   -1.1134  -10.8576   30.5057 N   0  0  0  0  0  0  0  0  0  0  0  0
   -0.9231   -9.5222   30.5167 C   0  0  0  0  0  0  0  0  0  0  0  0
   -0.5955   -9.3924   29.1992 C   0  0  0  0  0  0  0  0  0  0  0  0
   -1.4401  -10.6352   28.5098 C   0  0  0  0  0  0  0  0  0  0  0  0
   -2.1452  -11.3685   27.1458 C   0  0  0  0  0  0  0  0  0  0  0  0
   -0.0374   -8.0677   28.8296 C   0  0  0  0  0  0  0  0  0  0  0  0
    0.0177   -6.9880   29.9354 C   0  0  0  0  0  0  0  0  0  0  0  0
   -1.0141   -7.1602   31.0432 C   0  0  0  0  0  0  0  0  0  0  0  0
   -0.9818   -8.5564   31.6445 C   0  0  0  0  0  0  0  0  0  0  0  0
   -2.4569  -14.6312   24.3664 N   0  0  0  0  0  0  0  0  0  0  0  0
   -5.3452  -17.5144   22.1817 N   0  0  0  0  0  0  0  0  0  0  0  0
   -6.1392  -18.2782   21.3011 C   0  0  0  0  0  0  0  0  0  0  0  0
   -4.5266  -17.6556   18.5996 H   0  0  0  0  0  0  0  0  0  0  0  0
   -3.0922  -16.0940   20.1396 H   0  0  0  0  0  0  0  0  0  0  0  0
   -2.9616  -14.1203   28.1335 H   0  0  0  0  0  0  0  0  0  0  0  0
   -3.5118  -13.0319   29.9978 H   0  0  0  0  0  0  0  0  0  0  0  0
   -0.7598  -11.4212   31.2388 H   0  0  0  0  0  0  0  0  0  0  0  0
   -2.1079  -10.6965   26.3257 H   0  0  0  0  0  0  0  0  0  0  0  0
    0.9296   -8.1108   28.3369 H   0  0  0  0  0  0  0  0  0  0  0  0
   -0.7765   -7.7545   28.1367 H   0  0  0  0  0  0  0  0  0  0  0  0
   -0.0875   -5.9918   29.4920 H   0  0  0  0  0  0  0  0  0  0  0  0
    0.9994   -6.9717   30.3924 H   0  0  0  0  0  0  0  0  0  0  0  0
   -1.9956   -7.0188   30.6031 H   0  0  0  0  0  0  0  0  0  0  0  0
   -0.8855   -6.4001   31.8209 H   0  0  0  0  0  0  0  0  0  0  0  0
   -0.1520   -8.6153   32.3413 H   0  0  0  0  0  0  0  0  0  0  0  0
   -1.8955   -8.7147   32.2277 H   0  0  0  0  0  0  0  0  0  0  0  0
   -6.9905  -18.7475   21.7737 H   0  0  0  0  0  0  0  0  0  0  0  0
  1  2  1  0
  2  3  2  0
  3  4  1  0
  4  5  2  0
  5  6  1  0
  6  7  2  0
  7  8  1  0
  8  9  1  0
  9 10  1  0
 10 11  2  0
 11 12  1  0
 12 13  2  0
 13 14  1  0
 14 15  1  0
 15 16  2  0
 16 17  1  0
 17 18  2  0
 16 19  1  0
 19 20  1  0
 20 21  1  0
 21 22  1  0
  9 23  2  0
  5 24  1  0
 24 25  2  0
 25  2  1  0
 23  6  1  0
 18 10  1  0
 17 13  1  0
 22 15  1  0
  3 26  1  0
  4 27  1  0
 11 28  1  0
 12 29  1  0
 14 30  1  0
 18 31  1  0
 19 32  1  0
 19 33  1  0
 20 34  1  0
 20 35  1  0
 21 36  1  0
 21 37  1  0
 22 38  1  0
 22 39  1  0
 25 40  1  0
M  END
>  <Energy>  (592) 
599.56449814859195

>  <compound_id>  (592) 
57334

>  <target_id>  (592) 
1

>  <reference_id>  (592) 
40

>  <inspiration_ids>  (592) 
[48, 40]

>  <energy_score>  (592) 
453.37236035620174

>  <distance_score>  (592) 
11.753096291975606

>  <path>  (592) 
/opt/xchem-fragalysis-2/maxwin/BulkDock/SCRATCH/511021/C57334-P40/C57334-P40.minimised.mol

>  <scratch_subdir>  (592) 
/opt/xchem-fragalysis-2/maxwin/BulkDock/SCRATCH/511021/C57334-P40

>  <fragmenstein_runtime>  (592) 
9.45596718788147

>  <fragmenstein_outcome>  (592) 
too moved

>  <fragmenstein_mode>  (592) 
expansion

>  <fragmenstein_error>  (592) 


$$$$
C57335-P48
     RDKit          3D

 43 47  0  0  0  0  0  0  0  0999 V2000
   -3.7756  -20.5537   26.5654 F   0  0  0  0  0  0  0  0  0  0  0  0
   -3.5281  -19.4461   27.3007 C   0  0  0  0  0  0  0  0  0  0  0  0
   -2.3610  -18.7061   27.1346 C   0  0  0  0  0  0  0  0  0  0  0  0
   -2.2709  -17.3776   27.6659 C   0  0  0  0  0  0  0  0  0  0  0  0
   -3.3457  -16.7877   28.3523 C   0  0  0  0  0  0  0  0  0  0  0  0
   -3.3532  -15.3181   28.8669 C   0  0  0  0  0  0  0  0  0  0  0  0
   -4.2752  -14.8772   29.7471 N   0  0  0  0  0  0  0  0  0  0  0  0
   -4.0116  -13.5131   29.9190 O   0  0  0  0  0  0  0  0  0  0  0  0
   -2.8926  -13.1774   29.1925 C   0  0  0  0  0  0  0  0  0  0  0  0
   -2.5129  -11.5533   29.1855 C   0  0  0  0  0  0  0  0  0  0  0  0
   -3.5963  -10.8898   28.6139 C   0  0  0  0  0  0  0  0  0  0  0  0
   -4.3395   -8.6499   28.3201 C   0  0  0  0  0  0  0  0  0  0  0  0
   -2.7497   -7.6724   28.8695 C   0  0  0  0  0  0  0  0  0  0  0  0
   -1.9032   -6.6181   28.8176 N   0  0  0  0  0  0  0  0  0  0  0  0
   -0.9770   -6.4391   29.8819 C   0  0  0  0  0  0  0  0  0  0  0  0
   -0.7875   -7.6425   30.4717 C   0  0  0  0  0  0  0  0  0  0  0  0
   -1.3359   -8.5677   29.5288 C   0  0  0  0  0  0  0  0  0  0  0  0
   -1.4732  -10.3199   29.7608 C   0  0  0  0  0  0  0  0  0  0  0  0
   -0.1457   -7.8523   31.7881 C   0  0  0  0  0  0  0  0  0  0  0  0
   -0.2823   -6.6818   32.7619 C   0  0  0  0  0  0  0  0  0  0  0  0
    0.7008   -5.5382   32.4836 C   0  0  0  0  0  0  0  0  0  0  0  0
    0.9078   -5.1685   31.0104 C   0  0  0  0  0  0  0  0  0  0  0  0
   -0.3916   -5.0783   30.2144 C   0  0  0  0  0  0  0  0  0  0  0  0
   -2.4941  -14.2463   28.4733 N   0  0  0  0  0  0  0  0  0  0  0  0
   -4.4583  -17.5729   28.5839 N   0  0  0  0  0  0  0  0  0  0  0  0
   -4.5153  -18.8631   28.0814 C   0  0  0  0  0  0  0  0  0  0  0  0
   -1.5390  -19.1096   26.5517 H   0  0  0  0  0  0  0  0  0  0  0  0
   -1.3589  -16.8111   27.5263 H   0  0  0  0  0  0  0  0  0  0  0  0
   -4.3014  -11.8060   28.2486 H   0  0  0  0  0  0  0  0  0  0  0  0
   -5.2911   -8.2410   27.9581 H   0  0  0  0  0  0  0  0  0  0  0  0
   -1.9628   -5.8995   28.1116 H   0  0  0  0  0  0  0  0  0  0  0  0
   -0.9241  -10.5640   30.6613 H   0  0  0  0  0  0  0  0  0  0  0  0
   -0.5913   -8.7315   32.2584 H   0  0  0  0  0  0  0  0  0  0  0  0
    0.9094   -8.0112   31.6120 H   0  0  0  0  0  0  0  0  0  0  0  0
   -1.3088   -6.2984   32.7609 H   0  0  0  0  0  0  0  0  0  0  0  0
   -0.0926   -7.0429   33.7806 H   0  0  0  0  0  0  0  0  0  0  0  0
    1.6792   -5.7977   32.9077 H   0  0  0  0  0  0  0  0  0  0  0  0
    0.3586   -4.6524   33.0333 H   0  0  0  0  0  0  0  0  0  0  0  0
    1.5949   -5.8823   30.5386 H   0  0  0  0  0  0  0  0  0  0  0  0
    1.4129   -4.1950   30.9770 H   0  0  0  0  0  0  0  0  0  0  0  0
   -1.1157   -4.4824   30.7825 H   0  0  0  0  0  0  0  0  0  0  0  0
   -0.1951   -4.5306   29.2860 H   0  0  0  0  0  0  0  0  0  0  0  0
   -5.4520  -19.3792   28.2677 H   0  0  0  0  0  0  0  0  0  0  0  0
  1  2  1  0
  2  3  2  0
  3  4  1  0
  4  5  2  0
  5  6  1  0
  6  7  2  0
  7  8  1  0
  8  9  1  0
  9 10  1  0
 10 11  2  0
 11 12  1  0
 12 13  2  0
 13 14  1  0
 14 15  1  0
 15 16  2  0
 16 17  1  0
 17 18  2  0
 16 19  1  0
 19 20  1  0
 20 21  1  0
 21 22  1  0
 22 23  1  0
  9 24  2  0
  5 25  1  0
 25 26  2  0
 26  2  1  0
 24  6  1  0
 18 10  1  0
 17 13  1  0
 23 15  1  0
  3 27  1  0
  4 28  1  0
 11 29  1  0
 12 30  1  0
 14 31  1  0
 18 32  1  0
 19 33  1  0
 19 34  1  0
 20 35  1  0
 20 36  1  0
 21 37  1  0
 21 38  1  0
 22 39  1  0
 22 40  1  0
 23 41  1  0
 23 42  1  0
 26 43  1  0
M  END
>  <Energy>  (593) 
958.52347152542313

>  <compound_id>  (593) 
57335

>  <target_id>  (593) 
1

>  <reference_id>  (593) 
48

>  <inspiration_ids>  (593) 
[48, 40]

>  <energy_score>  (593) 
822.4591282973198

>  <distance_score>  (593) 
14.239641821219479

>  <path>  (593) 
/opt/xchem-fragalysis-2/maxwin/BulkDock/SCRATCH/511021/C57335-P48/C57335-P48.minimised.mol

>  <scratch_subdir>  (593) 
/opt/xchem-fragalysis-2/maxwin/BulkDock/SCRATCH/511021/C57335-P48

>  <fragmenstein_runtime>  (593) 
11.97352647781372

>  <fragmenstein_outcome>  (593) 
too moved

>  <fragmenstein_mode>  (593) 
expansion

>  <fragmenstein_error>  (593) 


$$$$
C57335-P40
     RDKit          3D

 43 47  0  0  0  0  0  0  0  0999 V2000
   -8.3623  -16.2174   27.7333 F   0  0  0  0  0  0  0  0  0  0  0  0
   -7.3813  -15.4228   28.2090 C   0  0  0  0  0  0  0  0  0  0  0  0
   -6.2985  -15.9412   28.9182 C   0  0  0  0  0  0  0  0  0  0  0  0
   -5.1660  -15.1306   29.1878 C   0  0  0  0  0  0  0  0  0  0  0  0
   -5.1652  -13.7831   28.8164 C   0  0  0  0  0  0  0  0  0  0  0  0
   -3.8983  -12.9288   28.8087 C   0  0  0  0  0  0  0  0  0  0  0  0
   -3.3529  -12.5064   27.6739 N   0  0  0  0  0  0  0  0  0  0  0  0
   -2.4109  -11.5447   28.0558 O   0  0  0  0  0  0  0  0  0  0  0  0
   -2.3110  -11.4623   29.4273 C   0  0  0  0  0  0  0  0  0  0  0  0
   -1.2199  -10.1691   30.2070 C   0  0  0  0  0  0  0  0  0  0  0  0
   -1.4918   -9.4547   31.4492 C   0  0  0  0  0  0  0  0  0  0  0  0
   -1.1217   -8.1429   31.8535 C   0  0  0  0  0  0  0  0  0  0  0  0
   -0.4084   -7.3675   30.9738 C   0  0  0  0  0  0  0  0  0  0  0  0
   -0.0460   -6.0625   31.1146 N   0  0  0  0  0  0  0  0  0  0  0  0
    0.8619   -5.7160   30.1616 C   0  0  0  0  0  0  0  0  0  0  0  0
    0.9997   -6.7957   29.2878 C   0  0  0  0  0  0  0  0  0  0  0  0
    0.0747   -7.8662   29.7740 C   0  0  0  0  0  0  0  0  0  0  0  0
   -0.3874   -9.2441   29.4745 C   0  0  0  0  0  0  0  0  0  0  0  0
    2.1323   -6.8319   28.2882 C   0  0  0  0  0  0  0  0  0  0  0  0
    2.4371   -5.6390   27.3860 C   0  0  0  0  0  0  0  0  0  0  0  0
    2.4312   -4.2349   27.9766 C   0  0  0  0  0  0  0  0  0  0  0  0
    2.7685   -4.1671   29.4549 C   0  0  0  0  0  0  0  0  0  0  0  0
    1.5300   -4.3826   30.3089 C   0  0  0  0  0  0  0  0  0  0  0  0
   -3.0938  -12.4677   29.8549 N   0  0  0  0  0  0  0  0  0  0  0  0
   -6.2777  -13.2673   28.1864 N   0  0  0  0  0  0  0  0  0  0  0  0
   -7.3343  -14.0860   27.8973 C   0  0  0  0  0  0  0  0  0  0  0  0
   -6.2862  -16.9919   29.1920 H   0  0  0  0  0  0  0  0  0  0  0  0
   -4.2830  -15.5621   29.6508 H   0  0  0  0  0  0  0  0  0  0  0  0
   -2.2349   -9.7394   32.1645 H   0  0  0  0  0  0  0  0  0  0  0  0
   -1.4802   -7.7518   32.8039 H   0  0  0  0  0  0  0  0  0  0  0  0
   -0.2993   -5.4848   31.9064 H   0  0  0  0  0  0  0  0  0  0  0  0
   -0.0768   -9.6921   28.5992 H   0  0  0  0  0  0  0  0  0  0  0  0
    3.0497   -6.9697   28.8744 H   0  0  0  0  0  0  0  0  0  0  0  0
    2.0572   -7.7234   27.6681 H   0  0  0  0  0  0  0  0  0  0  0  0
    3.4392   -5.8145   26.9684 H   0  0  0  0  0  0  0  0  0  0  0  0
    1.7895   -5.6426   26.5146 H   0  0  0  0  0  0  0  0  0  0  0  0
    1.4536   -3.7696   27.8044 H   0  0  0  0  0  0  0  0  0  0  0  0
    3.1527   -3.6279   27.4151 H   0  0  0  0  0  0  0  0  0  0  0  0
    3.5678   -4.8692   29.7174 H   0  0  0  0  0  0  0  0  0  0  0  0
    3.1547   -3.1642   29.6767 H   0  0  0  0  0  0  0  0  0  0  0  0
    0.7924   -3.5990   30.0904 H   0  0  0  0  0  0  0  0  0  0  0  0
    1.8201   -4.2479   31.3595 H   0  0  0  0  0  0  0  0  0  0  0  0
   -8.1666  -13.6064   27.4062 H   0  0  0  0  0  0  0  0  0  0  0  0
  1  2  1  0
  2  3  2  0
  3  4  1  0
  4  5  2  0
  5  6  1  0
  6  7  2  0
  7  8  1  0
  8  9  1  0
  9 10  1  0
 10 11  2  0
 11 12  1  0
 12 13  2  0
 13 14  1  0
 14 15  1  0
 15 16  2  0
 16 17  1  0
 17 18  2  0
 16 19  1  0
 19 20  1  0
 20 21  1  0
 21 22  1  0
 22 23  1  0
  9 24  2  0
  5 25  1  0
 25 26  2  0
 26  2  1  0
 24  6  1  0
 18 10  1  0
 17 13  1  0
 23 15  1  0
  3 27  1  0
  4 28  1  0
 11 29  1  0
 12 30  1  0
 14 31  1  0
 18 32  1  0
 19 33  1  0
 19 34  1  0
 20 35  1  0
 20 36  1  0
 21 37  1  0
 21 38  1  0
 22 39  1  0
 22 40  1  0
 23 41  1  0
 23 42  1  0
 26 43  1  0
M  END
>  <Energy>  (594) 
211.6333959027809

>  <compound_id>  (594) 
57335

>  <target_id>  (594) 
1

>  <reference_id>  (594) 
40

>  <inspiration_ids>  (594) 
[48, 40]

>  <energy_score>  (594) 
75.56905267467175

>  <distance_score>  (594) 
14.517802036155159

>  <path>  (594) 
/opt/xchem-fragalysis-2/maxwin/BulkDock/SCRATCH/511021/C57335-P40/C57335-P40.minimised.mol

>  <scratch_subdir>  (594) 
/opt/xchem-fragalysis-2/maxwin/BulkDock/SCRATCH/511021/C57335-P40

>  <fragmenstein_runtime>  (594) 
9.29328203201294

>  <fragmenstein_outcome>  (594) 
too moved

>  <fragmenstein_mode>  (594) 
expansion

>  <fragmenstein_error>  (594) 


$$$$
C57336-P48
     RDKit          3D

 48 51  0  0  0  0  0  0  0  0999 V2000
   -5.1284  -14.2106   26.6123 O   0  0  0  0  0  0  0  0  0  0  0  0
   -4.2740  -14.6049   27.3764 C   0  0  0  0  0  0  0  0  0  0  0  0
   -4.1594  -16.3395   27.9374 N   0  0  0  0  0  0  0  0  0  0  0  0
   -5.3362  -17.8977   27.6284 C   0  0  0  0  0  0  0  0  0  0  0  0
   -5.8445  -19.1850   25.9357 C   0  0  0  0  0  0  0  0  0  0  0  0
   -6.3881  -18.6330   23.9879 C   0  0  0  0  0  0  0  0  0  0  0  0
   -7.4104  -19.1746   23.2151 C   0  0  0  0  0  0  0  0  0  0  0  0
   -7.6072  -19.3925   21.8338 C   0  0  0  0  0  0  0  0  0  0  0  0
   -7.0118  -19.0446   20.7307 N   0  0  0  0  0  0  0  0  0  0  0  0
   -6.2009  -18.1970   21.1753 C   0  0  0  0  0  0  0  0  0  0  0  0
   -5.9561  -18.0333   22.6590 C   0  0  0  0  0  0  0  0  0  0  0  0
   -3.1964  -13.0956   27.9934 C   0  0  0  0  0  0  0  0  0  0  0  0
   -3.0685  -12.7477   29.2934 C   0  0  0  0  0  0  0  0  0  0  0  0
   -2.1789  -11.3908   29.7999 C   0  0  0  0  0  0  0  0  0  0  0  0
   -1.4031  -10.3013   29.6255 C   0  0  0  0  0  0  0  0  0  0  0  0
   -0.9227   -9.3957   30.5056 N   0  0  0  0  0  0  0  0  0  0  0  0
   -0.6523   -8.2765   29.8182 C   0  0  0  0  0  0  0  0  0  0  0  0
   -0.2012   -8.9212   28.6140 C   0  0  0  0  0  0  0  0  0  0  0  0
   -1.2180  -10.3655   28.2955 C   0  0  0  0  0  0  0  0  0  0  0  0
   -2.3927  -11.6313   27.4901 C   0  0  0  0  0  0  0  0  0  0  0  0
    1.4531   -8.5352   28.6907 C   0  0  0  0  0  0  0  0  0  0  0  0
    2.1151   -7.0721   28.8097 C   0  0  0  0  0  0  0  0  0  0  0  0
    1.7329   -6.0835   29.9169 C   0  0  0  0  0  0  0  0  0  0  0  0
    0.2672   -5.8567   30.2190 C   0  0  0  0  0  0  0  0  0  0  0  0
   -0.4310   -7.0940   30.7175 C   0  0  0  0  0  0  0  0  0  0  0  0
   -3.4247  -16.4146   28.6314 H   0  0  0  0  0  0  0  0  0  0  0  0
   -6.1833  -17.5972   28.2783 H   0  0  0  0  0  0  0  0  0  0  0  0
   -4.8167  -18.6294   28.2860 H   0  0  0  0  0  0  0  0  0  0  0  0
   -6.5407  -19.6878   26.6103 H   0  0  0  0  0  0  0  0  0  0  0  0
   -5.0704  -20.0079   25.7867 H   0  0  0  0  0  0  0  0  0  0  0  0
   -8.4142  -19.2144   23.5303 H   0  0  0  0  0  0  0  0  0  0  0  0
   -8.2086  -20.2977   21.7464 H   0  0  0  0  0  0  0  0  0  0  0  0
   -5.5749  -17.7675   20.4175 H   0  0  0  0  0  0  0  0  0  0  0  0
   -5.1549  -17.3697   22.3849 H   0  0  0  0  0  0  0  0  0  0  0  0
   -3.4689  -13.4171   30.0504 H   0  0  0  0  0  0  0  0  0  0  0  0
   -1.6559  -11.2926   30.8155 H   0  0  0  0  0  0  0  0  0  0  0  0
   -1.0538   -9.4389   31.5096 H   0  0  0  0  0  0  0  0  0  0  0  0
   -2.5513  -11.5955   26.4214 H   0  0  0  0  0  0  0  0  0  0  0  0
    1.6740   -9.0604   29.5914 H   0  0  0  0  0  0  0  0  0  0  0  0
    2.0949   -8.9374   27.9371 H   0  0  0  0  0  0  0  0  0  0  0  0
    3.2019   -7.2013   28.9038 H   0  0  0  0  0  0  0  0  0  0  0  0
    2.1043   -6.5598   27.8417 H   0  0  0  0  0  0  0  0  0  0  0  0
    2.2196   -6.3646   30.8556 H   0  0  0  0  0  0  0  0  0  0  0  0
    2.1782   -5.1135   29.6574 H   0  0  0  0  0  0  0  0  0  0  0  0
    0.2237   -5.1145   31.0293 H   0  0  0  0  0  0  0  0  0  0  0  0
   -0.2636   -5.3716   29.4023 H   0  0  0  0  0  0  0  0  0  0  0  0
   -1.4165   -6.7945   31.0939 H   0  0  0  0  0  0  0  0  0  0  0  0
    0.1153   -7.4341   31.6106 H   0  0  0  0  0  0  0  0  0  0  0  0
  1  2  2  0
  2  3  1  0
  3  4  1  0
  4  5  1  0
  5  6  1  0
  6  7  2  0
  7  8  1  0
  8  9  2  0
  9 10  1  0
 10 11  2  0
  2 12  1  0
 12 13  2  0
 13 14  1  0
 14 15  2  0
 15 16  1  0
 16 17  1  0
 17 18  2  0
 18 19  1  0
 19 20  2  0
 18 21  1  0
 21 22  1  0
 22 23  1  0
 23 24  1  0
 24 25  1  0
 11  6  1  0
 20 12  1  0
 19 15  1  0
 25 17  1  0
  3 26  1  0
  4 27  1  0
  4 28  1  0
  5 29  1  0
  5 30  1  0
  7 31  1  0
  8 32  1  0
 10 33  1  0
 11 34  1  0
 13 35  1  0
 14 36  1  0
 16 37  1  0
 20 38  1  0
 21 39  1  0
 21 40  1  0
 22 41  1  0
 22 42  1  0
 23 43  1  0
 23 44  1  0
 24 45  1  0
 24 46  1  0
 25 47  1  0
 25 48  1  0
M  END
>  <Energy>  (595) 
1051.6942789422076

>  <compound_id>  (595) 
57336

>  <target_id>  (595) 
1

>  <reference_id>  (595) 
48

>  <inspiration_ids>  (595) 
[48, 40]

>  <energy_score>  (595) 
987.9217521971807

>  <distance_score>  (595) 
11.598812940997963

>  <path>  (595) 
/opt/xchem-fragalysis-2/maxwin/BulkDock/SCRATCH/511021/C57336-P48/C57336-P48.minimised.mol

>  <scratch_subdir>  (595) 
/opt/xchem-fragalysis-2/maxwin/BulkDock/SCRATCH/511021/C57336-P48

>  <fragmenstein_runtime>  (595) 
37.22752380371094

>  <fragmenstein_outcome>  (595) 
too moved

>  <fragmenstein_mode>  (595) 
expansion

>  <fragmenstein_error>  (595) 


$$$$
C57336-P40
     RDKit          3D

 48 51  0  0  0  0  0  0  0  0999 V2000
   -3.9297  -16.5813   27.5386 O   0  0  0  0  0  0  0  0  0  0  0  0
   -4.8081  -17.1928   28.1138 C   0  0  0  0  0  0  0  0  0  0  0  0
   -5.6406  -18.6117   27.5046 N   0  0  0  0  0  0  0  0  0  0  0  0
   -5.5339  -19.5071   25.7518 C   0  0  0  0  0  0  0  0  0  0  0  0
   -6.1652  -18.7296   23.8760 C   0  0  0  0  0  0  0  0  0  0  0  0
   -6.2642  -18.8659   22.0260 C   0  0  0  0  0  0  0  0  0  0  0  0
   -7.0228  -17.8998   21.5911 C   0  0  0  0  0  0  0  0  0  0  0  0
   -6.6334  -17.4136   20.3730 C   0  0  0  0  0  0  0  0  0  0  0  0
   -6.1222  -17.9591   19.2664 N   0  0  0  0  0  0  0  0  0  0  0  0
   -5.5659  -19.0809   19.5309 C   0  0  0  0  0  0  0  0  0  0  0  0
   -5.5434  -19.5107   20.8440 C   0  0  0  0  0  0  0  0  0  0  0  0
   -5.2036  -16.4100   29.4661 C   0  0  0  0  0  0  0  0  0  0  0  0
   -6.4373  -16.3342   30.0862 C   0  0  0  0  0  0  0  0  0  0  0  0
   -6.9498  -15.0862   30.6894 C   0  0  0  0  0  0  0  0  0  0  0  0
   -6.3003  -13.8041   30.5988 C   0  0  0  0  0  0  0  0  0  0  0  0
   -6.6490  -12.5232   31.0862 N   0  0  0  0  0  0  0  0  0  0  0  0
   -5.6922  -11.5333   30.8337 C   0  0  0  0  0  0  0  0  0  0  0  0
   -4.6825  -12.2759   29.9217 C   0  0  0  0  0  0  0  0  0  0  0  0
   -5.0950  -13.7323   29.9201 C   0  0  0  0  0  0  0  0  0  0  0  0
   -4.5557  -15.0348   29.4565 C   0  0  0  0  0  0  0  0  0  0  0  0
   -3.0506  -11.8598   29.3569 C   0  0  0  0  0  0  0  0  0  0  0  0
   -1.7015  -10.6853   30.0896 C   0  0  0  0  0  0  0  0  0  0  0  0
   -2.2042   -9.4602   31.4625 C   0  0  0  0  0  0  0  0  0  0  0  0
   -3.9407   -8.9167   31.7272 C   0  0  0  0  0  0  0  0  0  0  0  0
   -5.7365   -9.8094   31.6948 C   0  0  0  0  0  0  0  0  0  0  0  0
   -6.2668  -18.9708   28.2279 H   0  0  0  0  0  0  0  0  0  0  0  0
   -5.2159  -20.5084   26.1357 H   0  0  0  0  0  0  0  0  0  0  0  0
   -4.4912  -19.7710   25.3811 H   0  0  0  0  0  0  0  0  0  0  0  0
   -7.2182  -19.0380   23.7253 H   0  0  0  0  0  0  0  0  0  0  0  0
   -6.3200  -17.6747   23.8641 H   0  0  0  0  0  0  0  0  0  0  0  0
   -7.6500  -17.3226   22.2322 H   0  0  0  0  0  0  0  0  0  0  0  0
   -7.0494  -16.4449   20.2270 H   0  0  0  0  0  0  0  0  0  0  0  0
   -5.0427  -19.5235   18.7103 H   0  0  0  0  0  0  0  0  0  0  0  0
   -4.8787  -20.3727   20.9386 H   0  0  0  0  0  0  0  0  0  0  0  0
   -7.1032  -17.1935   30.0758 H   0  0  0  0  0  0  0  0  0  0  0  0
   -7.9238  -15.1352   31.1785 H   0  0  0  0  0  0  0  0  0  0  0  0
   -7.4693  -12.3596   31.6489 H   0  0  0  0  0  0  0  0  0  0  0  0
   -3.6140  -14.9409   28.9121 H   0  0  0  0  0  0  0  0  0  0  0  0
   -3.1172  -11.6883   28.2884 H   0  0  0  0  0  0  0  0  0  0  0  0
   -2.7077  -12.8536   29.1368 H   0  0  0  0  0  0  0  0  0  0  0  0
   -0.9584  -11.3001   30.6074 H   0  0  0  0  0  0  0  0  0  0  0  0
   -1.0990  -10.1454   29.3407 H   0  0  0  0  0  0  0  0  0  0  0  0
   -1.7359   -9.6673   32.3990 H   0  0  0  0  0  0  0  0  0  0  0  0
   -1.6315   -8.5332   31.2378 H   0  0  0  0  0  0  0  0  0  0  0  0
   -3.8679   -8.7968   32.8140 H   0  0  0  0  0  0  0  0  0  0  0  0
   -3.7489   -7.9457   31.4369 H   0  0  0  0  0  0  0  0  0  0  0  0
   -6.4467   -9.1867   31.1247 H   0  0  0  0  0  0  0  0  0  0  0  0
   -6.1352   -9.9810   32.7051 H   0  0  0  0  0  0  0  0  0  0  0  0
  1  2  2  0
  2  3  1  0
  3  4  1  0
  4  5  1  0
  5  6  1  0
  6  7  2  0
  7  8  1  0
  8  9  2  0
  9 10  1  0
 10 11  2  0
  2 12  1  0
 12 13  2  0
 13 14  1  0
 14 15  2  0
 15 16  1  0
 16 17  1  0
 17 18  2  0
 18 19  1  0
 19 20  2  0
 18 21  1  0
 21 22  1  0
 22 23  1  0
 23 24  1  0
 24 25  1  0
 11  6  1  0
 20 12  1  0
 19 15  1  0
 25 17  1  0
  3 26  1  0
  4 27  1  0
  4 28  1  0
  5 29  1  0
  5 30  1  0
  7 31  1  0
  8 32  1  0
 10 33  1  0
 11 34  1  0
 13 35  1  0
 14 36  1  0
 16 37  1  0
 20 38  1  0
 21 39  1  0
 21 40  1  0
 22 41  1  0
 22 42  1  0
 23 43  1  0
 23 44  1  0
 24 45  1  0
 24 46  1  0
 25 47  1  0
 25 48  1  0
M  END
>  <Energy>  (596) 
715.75554520159164

>  <compound_id>  (596) 
57336

>  <target_id>  (596) 
1

>  <reference_id>  (596) 
40

>  <inspiration_ids>  (596) 
[48, 40]

>  <energy_score>  (596) 
651.9830184565302

>  <distance_score>  (596) 
13.087749916270033

>  <path>  (596) 
/opt/xchem-fragalysis-2/maxwin/BulkDock/SCRATCH/511021/C57336-P40/C57336-P40.minimised.mol

>  <scratch_subdir>  (596) 
/opt/xchem-fragalysis-2/maxwin/BulkDock/SCRATCH/511021/C57336-P40

>  <fragmenstein_runtime>  (596) 
17.521142721176147

>  <fragmenstein_outcome>  (596) 
too moved

>  <fragmenstein_mode>  (596) 
expansion

>  <fragmenstein_error>  (596) 


$$$$
C57337-P48
     RDKit          3D

 49 52  0  0  0  0  0  0  0  0999 V2000
   -4.2050   -8.6038   21.3161 C   0  0  0  0  0  0  0  0  0  0  0  0
   -4.6315   -9.5070   22.4822 C   0  0  0  0  0  0  0  0  0  0  0  0
   -6.0813  -10.6890   21.7491 C   0  0  0  0  0  0  0  0  0  0  0  0
   -6.4965  -11.6429   20.0654 C   0  0  0  0  0  0  0  0  0  0  0  0
   -7.9529  -11.3749   18.9328 C   0  0  0  0  0  0  0  0  0  0  0  0
   -8.4914  -11.9076   17.9024 C   0  0  0  0  0  0  0  0  0  0  0  0
   -7.4968  -12.7165   17.8355 C   0  0  0  0  0  0  0  0  0  0  0  0
   -6.0222  -12.5652   18.1776 N   0  0  0  0  0  0  0  0  0  0  0  0
   -5.5299  -12.1799   19.3298 C   0  0  0  0  0  0  0  0  0  0  0  0
   -3.2466   -9.5313   23.8195 N   0  0  0  0  0  0  0  0  0  0  0  0
   -2.6938   -8.9002   25.6867 C   0  0  0  0  0  0  0  0  0  0  0  0
   -2.0029   -7.6939   27.1234 C   0  0  0  0  0  0  0  0  0  0  0  0
   -2.4609   -7.1606   28.3534 C   0  0  0  0  0  0  0  0  0  0  0  0
   -2.0039   -7.3487   29.9016 C   0  0  0  0  0  0  0  0  0  0  0  0
   -0.8249   -7.8031   30.4282 C   0  0  0  0  0  0  0  0  0  0  0  0
   -0.2506   -7.5797   31.6487 N   0  0  0  0  0  0  0  0  0  0  0  0
    0.8725   -6.8778   31.2979 C   0  0  0  0  0  0  0  0  0  0  0  0
    1.1142   -7.1684   29.9566 C   0  0  0  0  0  0  0  0  0  0  0  0
    0.0922   -8.2403   29.5255 C   0  0  0  0  0  0  0  0  0  0  0  0
   -0.7213   -8.5440   28.1744 C   0  0  0  0  0  0  0  0  0  0  0  0
    2.1469   -6.3252   29.2047 C   0  0  0  0  0  0  0  0  0  0  0  0
    2.7713   -5.1707   30.0253 C   0  0  0  0  0  0  0  0  0  0  0  0
    1.9329   -4.6828   31.2139 C   0  0  0  0  0  0  0  0  0  0  0  0
    1.5107   -5.8323   32.1339 C   0  0  0  0  0  0  0  0  0  0  0  0
   -3.5612   -7.8221   21.6874 H   0  0  0  0  0  0  0  0  0  0  0  0
   -5.0615   -8.0463   20.9150 H   0  0  0  0  0  0  0  0  0  0  0  0
   -3.7497   -9.1538   20.4946 H   0  0  0  0  0  0  0  0  0  0  0  0
   -5.2695   -8.6859   22.8534 H   0  0  0  0  0  0  0  0  0  0  0  0
   -6.8877   -9.9215   21.7256 H   0  0  0  0  0  0  0  0  0  0  0  0
   -6.4892  -11.3154   22.5604 H   0  0  0  0  0  0  0  0  0  0  0  0
   -8.4887  -10.3694   19.0119 H   0  0  0  0  0  0  0  0  0  0  0  0
   -9.4094  -11.6737   17.4339 H   0  0  0  0  0  0  0  0  0  0  0  0
   -7.5396  -13.5270   17.1276 H   0  0  0  0  0  0  0  0  0  0  0  0
   -4.4731  -12.1836   19.5572 H   0  0  0  0  0  0  0  0  0  0  0  0
   -3.2051  -10.5612   23.8220 H   0  0  0  0  0  0  0  0  0  0  0  0
   -2.0865   -9.7844   25.9575 H   0  0  0  0  0  0  0  0  0  0  0  0
   -3.4753   -8.5787   26.3069 H   0  0  0  0  0  0  0  0  0  0  0  0
   -2.1719   -6.0882   28.2584 H   0  0  0  0  0  0  0  0  0  0  0  0
   -2.7179   -7.2429   30.6854 H   0  0  0  0  0  0  0  0  0  0  0  0
   -0.7685   -7.3934   32.4975 H   0  0  0  0  0  0  0  0  0  0  0  0
   -0.6106   -9.6243   28.0810 H   0  0  0  0  0  0  0  0  0  0  0  0
    1.7110   -5.8141   28.3535 H   0  0  0  0  0  0  0  0  0  0  0  0
    2.9348   -6.9642   28.7940 H   0  0  0  0  0  0  0  0  0  0  0  0
    2.9587   -4.3227   29.3532 H   0  0  0  0  0  0  0  0  0  0  0  0
    3.7631   -5.4584   30.3755 H   0  0  0  0  0  0  0  0  0  0  0  0
    1.0392   -4.1735   30.8292 H   0  0  0  0  0  0  0  0  0  0  0  0
    2.4994   -3.9399   31.7867 H   0  0  0  0  0  0  0  0  0  0  0  0
    2.3803   -6.2468   32.6532 H   0  0  0  0  0  0  0  0  0  0  0  0
    0.8183   -5.4580   32.8960 H   0  0  0  0  0  0  0  0  0  0  0  0
  1  2  1  0
  2  3  1  0
  3  4  1  0
  4  5  2  0
  5  6  1  0
  6  7  2  0
  7  8  1  0
  8  9  2  0
  2 10  1  0
 10 11  1  0
 11 12  1  0
 12 13  2  0
 13 14  1  0
 14 15  2  0
 15 16  1  0
 16 17  1  0
 17 18  2  0
 18 19  1  0
 19 20  2  0
 18 21  1  0
 21 22  1  0
 22 23  1  0
 23 24  1  0
  9  4  1  0
 20 12  1  0
 19 15  1  0
 24 17  1  0
  1 25  1  0
  1 26  1  0
  1 27  1  0
  2 28  1  0
  3 29  1  0
  3 30  1  0
  5 31  1  0
  6 32  1  0
  7 33  1  0
  9 34  1  0
 10 35  1  0
 11 36  1  0
 11 37  1  0
 13 38  1  0
 14 39  1  0
 16 40  1  0
 20 41  1  0
 21 42  1  0
 21 43  1  0
 22 44  1  0
 22 45  1  0
 23 46  1  0
 23 47  1  0
 24 48  1  0
 24 49  1  0
M  END
>  <Energy>  (597) 
924.94275011680145

>  <compound_id>  (597) 
57337

>  <target_id>  (597) 
1

>  <reference_id>  (597) 
48

>  <inspiration_ids>  (597) 
[48, 40]

>  <energy_score>  (597) 
838.1587180486612

>  <distance_score>  (597) 
11.565401165636777

>  <path>  (597) 
/opt/xchem-fragalysis-2/maxwin/BulkDock/SCRATCH/511021/C57337-P48/C57337-P48.minimised.mol

>  <scratch_subdir>  (597) 
/opt/xchem-fragalysis-2/maxwin/BulkDock/SCRATCH/511021/C57337-P48

>  <fragmenstein_runtime>  (597) 
15.11826205253601

>  <fragmenstein_outcome>  (597) 
too moved

>  <fragmenstein_mode>  (597) 
expansion

>  <fragmenstein_error>  (597) 


$$$$
C57337-P40
     RDKit          3D

 49 52  0  0  0  0  0  0  0  0999 V2000
   -3.9902  -16.0080   27.1353 C   0  0  0  0  0  0  0  0  0  0  0  0
   -5.2608  -15.4444   27.7736 C   0  0  0  0  0  0  0  0  0  0  0  0
   -6.5617  -15.6948   26.8113 C   0  0  0  0  0  0  0  0  0  0  0  0
   -7.0592  -17.0088   26.0869 C   0  0  0  0  0  0  0  0  0  0  0  0
   -6.4667  -18.2701   26.0707 C   0  0  0  0  0  0  0  0  0  0  0  0
   -6.9463  -19.2978   25.2255 C   0  0  0  0  0  0  0  0  0  0  0  0
   -8.0458  -19.0656   24.4191 C   0  0  0  0  0  0  0  0  0  0  0  0
   -8.7465  -17.9184   24.4648 N   0  0  0  0  0  0  0  0  0  0  0  0
   -8.2397  -16.9587   25.3169 C   0  0  0  0  0  0  0  0  0  0  0  0
   -5.0773  -13.9793   28.2438 N   0  0  0  0  0  0  0  0  0  0  0  0
   -3.6660  -13.5020   28.4399 C   0  0  0  0  0  0  0  0  0  0  0  0
   -3.4116  -12.2671   29.2404 C   0  0  0  0  0  0  0  0  0  0  0  0
   -2.1720  -12.0101   29.2974 C   0  0  0  0  0  0  0  0  0  0  0  0
   -0.9240  -11.2102   30.5052 C   0  0  0  0  0  0  0  0  0  0  0  0
   -1.0070  -10.0066   31.0391 C   0  0  0  0  0  0  0  0  0  0  0  0
   -1.6482   -9.0569   31.7595 N   0  0  0  0  0  0  0  0  0  0  0  0
   -1.1578   -7.9268   31.1910 C   0  0  0  0  0  0  0  0  0  0  0  0
   -0.8073   -8.3729   29.9157 C   0  0  0  0  0  0  0  0  0  0  0  0
   -1.2386   -9.9668   29.6758 C   0  0  0  0  0  0  0  0  0  0  0  0
   -2.7280  -11.1850   29.6163 C   0  0  0  0  0  0  0  0  0  0  0  0
    0.2458   -7.5757   29.2388 C   0  0  0  0  0  0  0  0  0  0  0  0
    0.3675   -6.1173   29.7342 C   0  0  0  0  0  0  0  0  0  0  0  0
    0.3887   -5.9976   31.2649 C   0  0  0  0  0  0  0  0  0  0  0  0
   -0.8198   -6.6748   31.9079 C   0  0  0  0  0  0  0  0  0  0  0  0
   -3.7813  -15.5271   26.1757 H   0  0  0  0  0  0  0  0  0  0  0  0
   -4.0742  -17.0859   27.0119 H   0  0  0  0  0  0  0  0  0  0  0  0
   -3.1032  -15.9035   27.7649 H   0  0  0  0  0  0  0  0  0  0  0  0
   -5.4384  -16.0257   28.6877 H   0  0  0  0  0  0  0  0  0  0  0  0
   -7.4222  -15.3583   27.4069 H   0  0  0  0  0  0  0  0  0  0  0  0
   -6.4472  -14.9675   25.9939 H   0  0  0  0  0  0  0  0  0  0  0  0
   -5.6068  -18.4875   26.6938 H   0  0  0  0  0  0  0  0  0  0  0  0
   -6.4503  -20.2615   25.2003 H   0  0  0  0  0  0  0  0  0  0  0  0
   -8.4008  -19.8359   23.7454 H   0  0  0  0  0  0  0  0  0  0  0  0
   -8.8611  -16.0669   25.3888 H   0  0  0  0  0  0  0  0  0  0  0  0
   -5.5956  -13.8422   29.1106 H   0  0  0  0  0  0  0  0  0  0  0  0
   -3.2875  -13.3763   27.4200 H   0  0  0  0  0  0  0  0  0  0  0  0
   -3.1253  -14.3031   28.9546 H   0  0  0  0  0  0  0  0  0  0  0  0
   -2.0226  -11.5675   28.0611 H   0  0  0  0  0  0  0  0  0  0  0  0
    0.0712  -11.6596   30.3682 H   0  0  0  0  0  0  0  0  0  0  0  0
   -1.9323   -9.1411   32.7303 H   0  0  0  0  0  0  0  0  0  0  0  0
   -3.4728  -10.8180   30.3603 H   0  0  0  0  0  0  0  0  0  0  0  0
    0.1749   -7.6588   28.1713 H   0  0  0  0  0  0  0  0  0  0  0  0
    1.1677   -8.0511   29.5038 H   0  0  0  0  0  0  0  0  0  0  0  0
   -0.4682   -5.5102   29.3785 H   0  0  0  0  0  0  0  0  0  0  0  0
    1.2797   -5.6720   29.3203 H   0  0  0  0  0  0  0  0  0  0  0  0
    0.4129   -4.9398   31.5532 H   0  0  0  0  0  0  0  0  0  0  0  0
    1.3033   -6.4350   31.6684 H   0  0  0  0  0  0  0  0  0  0  0  0
   -0.6224   -6.8629   32.9690 H   0  0  0  0  0  0  0  0  0  0  0  0
   -1.6503   -5.9809   31.8529 H   0  0  0  0  0  0  0  0  0  0  0  0
  1  2  1  0
  2  3  1  0
  3  4  1  0
  4  5  2  0
  5  6  1  0
  6  7  2  0
  7  8  1  0
  8  9  2  0
  2 10  1  0
 10 11  1  0
 11 12  1  0
 12 13  2  0
 13 14  1  0
 14 15  2  0
 15 16  1  0
 16 17  1  0
 17 18  2  0
 18 19  1  0
 19 20  2  0
 18 21  1  0
 21 22  1  0
 22 23  1  0
 23 24  1  0
  9  4  1  0
 20 12  1  0
 19 15  1  0
 24 17  1  0
  1 25  1  0
  1 26  1  0
  1 27  1  0
  2 28  1  0
  3 29  1  0
  3 30  1  0
  5 31  1  0
  6 32  1  0
  7 33  1  0
  9 34  1  0
 10 35  1  0
 11 36  1  0
 11 37  1  0
 13 38  1  0
 14 39  1  0
 16 40  1  0
 20 41  1  0
 21 42  1  0
 21 43  1  0
 22 44  1  0
 22 45  1  0
 23 46  1  0
 23 47  1  0
 24 48  1  0
 24 49  1  0
M  END
>  <Energy>  (598) 
698.0247724713239

>  <compound_id>  (598) 
57337

>  <target_id>  (598) 
1

>  <reference_id>  (598) 
40

>  <inspiration_ids>  (598) 
[48, 40]

>  <energy_score>  (598) 
611.2407404031713

>  <distance_score>  (598) 
12.619516184078014

>  <path>  (598) 
/opt/xchem-fragalysis-2/maxwin/BulkDock/SCRATCH/511021/C57337-P40/C57337-P40.minimised.mol

>  <scratch_subdir>  (598) 
/opt/xchem-fragalysis-2/maxwin/BulkDock/SCRATCH/511021/C57337-P40

>  <fragmenstein_runtime>  (598) 
19.651520013809204

>  <fragmenstein_outcome>  (598) 
too moved

>  <fragmenstein_mode>  (598) 
expansion

>  <fragmenstein_error>  (598) 


$$$$
C57338-P48
     RDKit          3D

 48 51  0  0  0  0  0  0  0  0999 V2000
   -5.0317  -17.6623   19.4379 C   0  0  0  0  0  0  0  0  0  0  0  0
   -5.4594  -17.5961   21.1854 C   0  0  0  0  0  0  0  0  0  0  0  0
   -4.4946  -16.2685   22.4126 O   0  0  0  0  0  0  0  0  0  0  0  0
   -4.0081  -15.0437   23.8792 C   0  0  0  0  0  0  0  0  0  0  0  0
   -2.8116  -15.1463   24.1089 O   0  0  0  0  0  0  0  0  0  0  0  0
   -4.7072  -13.9463   25.1046 C   0  0  0  0  0  0  0  0  0  0  0  0
   -5.3767  -14.3153   26.2597 C   0  0  0  0  0  0  0  0  0  0  0  0
   -4.9853  -13.8395   27.7064 C   0  0  0  0  0  0  0  0  0  0  0  0
   -3.8885  -12.9204   28.1770 C   0  0  0  0  0  0  0  0  0  0  0  0
   -3.3869  -12.5391   29.4294 N   0  0  0  0  0  0  0  0  0  0  0  0
   -2.4128  -11.4412   29.5105 C   0  0  0  0  0  0  0  0  0  0  0  0
   -2.0287  -11.1563   28.2467 C   0  0  0  0  0  0  0  0  0  0  0  0
   -3.0376  -12.3151   27.2770 C   0  0  0  0  0  0  0  0  0  0  0  0
   -3.4482  -13.0298   25.8647 C   0  0  0  0  0  0  0  0  0  0  0  0
   -0.7363   -9.7695   28.4885 C   0  0  0  0  0  0  0  0  0  0  0  0
   -0.7437   -8.6106   29.5206 C   0  0  0  0  0  0  0  0  0  0  0  0
   -1.1009   -9.0234   30.8681 C   0  0  0  0  0  0  0  0  0  0  0  0
   -1.5910  -10.4576   30.8031 C   0  0  0  0  0  0  0  0  0  0  0  0
   -5.6479  -19.4568   20.2817 C   0  0  0  0  0  0  0  0  0  0  0  0
   -4.9661  -20.3246   20.7720 O   0  0  0  0  0  0  0  0  0  0  0  0
   -6.6495  -19.7048   18.7931 N   0  0  0  0  0  0  0  0  0  0  0  0
   -7.0089  -21.2861   17.7352 C   0  0  0  0  0  0  0  0  0  0  0  0
   -8.6341  -21.0174   17.3343 C   0  0  0  0  0  0  0  0  0  0  0  0
   -9.2725  -22.0373   15.9856 C   0  0  0  0  0  0  0  0  0  0  0  0
   -8.4792  -23.2643   15.3766 C   0  0  0  0  0  0  0  0  0  0  0  0
   -7.1532  -23.8491   15.9122 N   0  0  0  0  0  0  0  0  0  0  0  0
   -6.4047  -23.0563   17.1477 C   0  0  0  0  0  0  0  0  0  0  0  0
   -4.5715  -23.7010   16.8610 Cl  0  0  0  0  0  0  0  0  0  0  0  0
   -5.9806  -17.4787   18.9574 H   0  0  0  0  0  0  0  0  0  0  0  0
   -4.2840  -16.9858   19.0665 H   0  0  0  0  0  0  0  0  0  0  0  0
   -4.6996  -18.5544   18.8990 H   0  0  0  0  0  0  0  0  0  0  0  0
   -6.5055  -17.2965   21.2848 H   0  0  0  0  0  0  0  0  0  0  0  0
   -6.1388  -15.0929   26.2073 H   0  0  0  0  0  0  0  0  0  0  0  0
   -5.5925  -14.2868   28.5002 H   0  0  0  0  0  0  0  0  0  0  0  0
   -3.6999  -13.0778   30.2126 H   0  0  0  0  0  0  0  0  0  0  0  0
   -2.4255  -13.2838   25.5910 H   0  0  0  0  0  0  0  0  0  0  0  0
   -0.6131   -9.1550   27.6464 H   0  0  0  0  0  0  0  0  0  0  0  0
    0.2575  -10.0851   28.6900 H   0  0  0  0  0  0  0  0  0  0  0  0
   -1.3890   -7.7776   29.2245 H   0  0  0  0  0  0  0  0  0  0  0  0
    0.2704   -8.1966   29.5961 H   0  0  0  0  0  0  0  0  0  0  0  0
   -1.8391   -8.3320   31.3119 H   0  0  0  0  0  0  0  0  0  0  0  0
   -0.2841   -8.8809   31.5772 H   0  0  0  0  0  0  0  0  0  0  0  0
   -0.7292  -11.0360   30.8849 H   0  0  0  0  0  0  0  0  0  0  0  0
   -2.0943  -10.3534   31.7289 H   0  0  0  0  0  0  0  0  0  0  0  0
   -7.1898  -18.8795   18.6212 H   0  0  0  0  0  0  0  0  0  0  0  0
   -9.1031  -20.1203   17.6626 H   0  0  0  0  0  0  0  0  0  0  0  0
  -10.0723  -21.6444   15.3810 H   0  0  0  0  0  0  0  0  0  0  0  0
   -8.8564  -23.7910   14.5051 H   0  0  0  0  0  0  0  0  0  0  0  0
  1  2  1  0
  2  3  1  0
  3  4  1  0
  4  5  2  0
  4  6  1  0
  6  7  2  0
  7  8  1  0
  8  9  2  0
  9 10  1  0
 10 11  1  0
 11 12  2  0
 12 13  1  0
 13 14  2  0
 12 15  1  0
 15 16  1  0
 16 17  1  0
 17 18  1  0
  2 19  1  0
 19 20  2  0
 19 21  1  0
 21 22  1  0
 22 23  2  0
 23 24  1  0
 24 25  2  0
 25 26  1  0
 26 27  2  0
 27 28  1  0
 14  6  1  0
 27 22  1  0
 13  9  1  0
 18 11  1  0
  1 29  1  0
  1 30  1  0
  1 31  1  0
  2 32  1  0
  7 33  1  0
  8 34  1  0
 10 35  1  0
 14 36  1  0
 15 37  1  0
 15 38  1  0
 16 39  1  0
 16 40  1  0
 17 41  1  0
 17 42  1  0
 18 43  1  0
 18 44  1  0
 21 45  1  0
 23 46  1  0
 24 47  1  0
 25 48  1  0
M  END
>  <Energy>  (599) 
1313.5285732865514

>  <compound_id>  (599) 
57338

>  <target_id>  (599) 
1

>  <reference_id>  (599) 
48

>  <inspiration_ids>  (599) 
[48, 40]

>  <energy_score>  (599) 
1175.48721142572

>  <distance_score>  (599) 
10.22989609340487

>  <path>  (599) 
/opt/xchem-fragalysis-2/maxwin/BulkDock/SCRATCH/511021/C57338-P48/C57338-P48.minimised.mol

>  <scratch_subdir>  (599) 
/opt/xchem-fragalysis-2/maxwin/BulkDock/SCRATCH/511021/C57338-P48

>  <fragmenstein_runtime>  (599) 
16.244208335876465

>  <fragmenstein_outcome>  (599) 
too moved

>  <fragmenstein_mode>  (599) 
expansion

>  <fragmenstein_error>  (599) 


$$$$
C57338-P40
     RDKit          3D

 48 51  0  0  0  0  0  0  0  0999 V2000
   -4.0583  -17.0395   20.1946 C   0  0  0  0  0  0  0  0  0  0  0  0
   -5.4596  -17.5324   20.7606 C   0  0  0  0  0  0  0  0  0  0  0  0
   -4.4996  -16.3161   22.0745 O   0  0  0  0  0  0  0  0  0  0  0  0
   -4.1848  -15.1007   23.5158 C   0  0  0  0  0  0  0  0  0  0  0  0
   -3.1637  -14.5367   23.3407 O   0  0  0  0  0  0  0  0  0  0  0  0
   -4.8760  -14.6282   25.2343 C   0  0  0  0  0  0  0  0  0  0  0  0
   -4.9073  -13.3380   25.0108 C   0  0  0  0  0  0  0  0  0  0  0  0
   -3.6870  -12.7917   25.4630 C   0  0  0  0  0  0  0  0  0  0  0  0
   -3.1918  -12.6198   26.8632 C   0  0  0  0  0  0  0  0  0  0  0  0
   -2.3527  -11.5625   27.0730 N   0  0  0  0  0  0  0  0  0  0  0  0
   -1.9570  -11.1102   28.3268 C   0  0  0  0  0  0  0  0  0  0  0  0
   -2.5649  -12.0274   29.1235 C   0  0  0  0  0  0  0  0  0  0  0  0
   -3.3495  -13.4084   28.0530 C   0  0  0  0  0  0  0  0  0  0  0  0
   -4.1347  -14.4990   26.8617 C   0  0  0  0  0  0  0  0  0  0  0  0
   -1.2577  -11.3880   30.4372 C   0  0  0  0  0  0  0  0  0  0  0  0
   -1.3113   -9.8163   31.1341 C   0  0  0  0  0  0  0  0  0  0  0  0
   -0.7650   -8.8704   30.1560 C   0  0  0  0  0  0  0  0  0  0  0  0
   -0.7905   -9.6907   28.8764 C   0  0  0  0  0  0  0  0  0  0  0  0
   -5.6169  -18.9125   19.1302 C   0  0  0  0  0  0  0  0  0  0  0  0
   -4.5592  -19.1101   18.6896 O   0  0  0  0  0  0  0  0  0  0  0  0
   -6.9720  -19.9975   18.3326 N   0  0  0  0  0  0  0  0  0  0  0  0
   -6.9027  -21.4695   17.0199 C   0  0  0  0  0  0  0  0  0  0  0  0
   -6.0423  -23.1554   17.0760 C   0  0  0  0  0  0  0  0  0  0  0  0
   -6.1176  -24.4473   16.3415 C   0  0  0  0  0  0  0  0  0  0  0  0
   -6.9632  -24.5728   15.2664 C   0  0  0  0  0  0  0  0  0  0  0  0
   -7.7846  -23.5940   14.8554 N   0  0  0  0  0  0  0  0  0  0  0  0
   -7.9086  -22.3392   15.5909 C   0  0  0  0  0  0  0  0  0  0  0  0
   -9.3926  -22.0133   14.7433 Cl  0  0  0  0  0  0  0  0  0  0  0  0
   -4.1199  -17.1117   19.0980 H   0  0  0  0  0  0  0  0  0  0  0  0
   -3.7307  -16.0001   20.1739 H   0  0  0  0  0  0  0  0  0  0  0  0
   -3.1578  -17.1500   20.7933 H   0  0  0  0  0  0  0  0  0  0  0  0
   -5.6315  -18.2553   21.5503 H   0  0  0  0  0  0  0  0  0  0  0  0
   -5.3453  -12.9612   24.0947 H   0  0  0  0  0  0  0  0  0  0  0  0
   -3.2401  -12.1163   24.7394 H   0  0  0  0  0  0  0  0  0  0  0  0
   -2.1306  -11.0591   26.2476 H   0  0  0  0  0  0  0  0  0  0  0  0
   -4.1721  -15.4874   27.3516 H   0  0  0  0  0  0  0  0  0  0  0  0
   -0.1959  -11.6209   30.3394 H   0  0  0  0  0  0  0  0  0  0  0  0
   -1.3089  -11.9886   31.2864 H   0  0  0  0  0  0  0  0  0  0  0  0
   -0.7288   -9.6871   32.0345 H   0  0  0  0  0  0  0  0  0  0  0  0
   -2.2779   -9.4851   31.5305 H   0  0  0  0  0  0  0  0  0  0  0  0
    0.2504   -8.5196   30.3695 H   0  0  0  0  0  0  0  0  0  0  0  0
   -1.2961   -7.9054   30.1132 H   0  0  0  0  0  0  0  0  0  0  0  0
   -0.6333   -8.8016   28.2740 H   0  0  0  0  0  0  0  0  0  0  0  0
    0.0934  -10.1809   29.0207 H   0  0  0  0  0  0  0  0  0  0  0  0
   -7.8288  -19.7201   18.6902 H   0  0  0  0  0  0  0  0  0  0  0  0
   -4.9177  -23.0944   17.2217 H   0  0  0  0  0  0  0  0  0  0  0  0
   -5.3742  -25.2139   16.5365 H   0  0  0  0  0  0  0  0  0  0  0  0
   -6.9714  -25.4709   14.6580 H   0  0  0  0  0  0  0  0  0  0  0  0
  1  2  1  0
  2  3  1  0
  3  4  1  0
  4  5  2  0
  4  6  1  0
  6  7  2  0
  7  8  1  0
  8  9  2  0
  9 10  1  0
 10 11  1  0
 11 12  2  0
 12 13  1  0
 13 14  2  0
 12 15  1  0
 15 16  1  0
 16 17  1  0
 17 18  1  0
  2 19  1  0
 19 20  2  0
 19 21  1  0
 21 22  1  0
 22 23  2  0
 23 24  1  0
 24 25  2  0
 25 26  1  0
 26 27  2  0
 27 28  1  0
 14  6  1  0
 27 22  1  0
 13  9  1  0
 18 11  1  0
  1 29  1  0
  1 30  1  0
  1 31  1  0
  2 32  1  0
  7 33  1  0
  8 34  1  0
 10 35  1  0
 14 36  1  0
 15 37  1  0
 15 38  1  0
 16 39  1  0
 16 40  1  0
 17 41  1  0
 17 42  1  0
 18 43  1  0
 18 44  1  0
 21 45  1  0
 23 46  1  0
 24 47  1  0
 25 48  1  0
M  END
>  <Energy>  (600) 
1655.8069381414623

>  <compound_id>  (600) 
57338

>  <target_id>  (600) 
1

>  <reference_id>  (600) 
40

>  <inspiration_ids>  (600) 
[48, 40]

>  <energy_score>  (600) 
1517.7655762806312

>  <distance_score>  (600) 
10.200798646787627

>  <path>  (600) 
/opt/xchem-fragalysis-2/maxwin/BulkDock/SCRATCH/511021/C57338-P40/C57338-P40.minimised.mol

>  <scratch_subdir>  (600) 
/opt/xchem-fragalysis-2/maxwin/BulkDock/SCRATCH/511021/C57338-P40

>  <fragmenstein_runtime>  (600) 
31.12578773498535

>  <fragmenstein_outcome>  (600) 
too moved

>  <fragmenstein_mode>  (600) 
expansion

>  <fragmenstein_error>  (600) 


$$$$
C57339-P48
     RDKit          3D

 51 55  0  0  0  0  0  0  0  0999 V2000
    2.1090  -16.1990   20.9271 C   0  0  0  0  0  0  0  0  0  0  0  0
    2.6965  -15.5290   21.8661 N   0  0  0  0  0  0  0  0  0  0  0  0
    1.2995  -16.4433   20.7514 C   0  0  0  0  0  0  0  0  0  0  0  0
   -0.5754  -16.0021   20.8703 C   0  0  0  0  0  0  0  0  0  0  0  0
   -1.7789  -16.0410   19.9416 C   0  0  0  0  0  0  0  0  0  0  0  0
   -3.0145  -16.4732   20.5194 C   0  0  0  0  0  0  0  0  0  0  0  0
   -4.4311  -17.5265   19.8197 C   0  0  0  0  0  0  0  0  0  0  0  0
   -4.6671  -18.8557   20.0066 C   0  0  0  0  0  0  0  0  0  0  0  0
   -5.8367  -19.4168   20.2724 C   0  0  0  0  0  0  0  0  0  0  0  0
   -6.7174  -19.0615   19.3541 C   0  0  0  0  0  0  0  0  0  0  0  0
   -6.4280  -17.9365   18.7097 C   0  0  0  0  0  0  0  0  0  0  0  0
   -5.1972  -17.2810   18.7569 N   0  0  0  0  0  0  0  0  0  0  0  0
   -2.6707  -15.2080   20.9313 N   0  0  0  0  0  0  0  0  0  0  0  0
   -1.3035  -15.0730   21.5060 O   0  0  0  0  0  0  0  0  0  0  0  0
    4.2096  -15.8443   22.3387 C   0  0  0  0  0  0  0  0  0  0  0  0
    4.9541  -16.6869   22.0645 O   0  0  0  0  0  0  0  0  0  0  0  0
    4.7875  -14.6765   23.2964 C   0  0  0  0  0  0  0  0  0  0  0  0
    5.9405  -15.0286   24.0084 C   0  0  0  0  0  0  0  0  0  0  0  0
    6.7041  -14.1130   24.7528 C   0  0  0  0  0  0  0  0  0  0  0  0
    6.3000  -12.7807   24.8052 C   0  0  0  0  0  0  0  0  0  0  0  0
    6.9447  -11.7134   25.3844 N   0  0  0  0  0  0  0  0  0  0  0  0
    6.1746  -10.5987   25.3097 C   0  0  0  0  0  0  0  0  0  0  0  0
    4.9864  -10.9440   24.6795 C   0  0  0  0  0  0  0  0  0  0  0  0
    5.1164  -12.3296   24.2176 C   0  0  0  0  0  0  0  0  0  0  0  0
    4.3677  -13.3090   23.4404 C   0  0  0  0  0  0  0  0  0  0  0  0
    3.8558   -9.9555   24.6538 C   0  0  0  0  0  0  0  0  0  0  0  0
    4.0411   -8.7519   25.6028 C   0  0  0  0  0  0  0  0  0  0  0  0
    5.4743   -8.2160   25.7415 C   0  0  0  0  0  0  0  0  0  0  0  0
    6.5785   -9.2783   25.8813 C   0  0  0  0  0  0  0  0  0  0  0  0
    2.9923  -16.6799   20.1311 H   0  0  0  0  0  0  0  0  0  0  0  0
    2.5813  -15.3061   20.2104 H   0  0  0  0  0  0  0  0  0  0  0  0
    2.7239  -17.1859   21.4492 H   0  0  0  0  0  0  0  0  0  0  0  0
    1.1199  -17.6335   21.0886 H   0  0  0  0  0  0  0  0  0  0  0  0
    1.2949  -16.4238   19.4436 H   0  0  0  0  0  0  0  0  0  0  0  0
   -1.7671  -15.8804   18.8989 H   0  0  0  0  0  0  0  0  0  0  0  0
   -4.5507  -19.2622   18.9494 H   0  0  0  0  0  0  0  0  0  0  0  0
   -5.5957  -20.4044   20.5845 H   0  0  0  0  0  0  0  0  0  0  0  0
   -7.4417  -19.6444   18.8432 H   0  0  0  0  0  0  0  0  0  0  0  0
   -7.1978  -17.6136   18.0048 H   0  0  0  0  0  0  0  0  0  0  0  0
    6.3087  -16.0528   23.9463 H   0  0  0  0  0  0  0  0  0  0  0  0
    7.6180  -14.4438   25.2370 H   0  0  0  0  0  0  0  0  0  0  0  0
    7.8543  -11.7691   25.8182 H   0  0  0  0  0  0  0  0  0  0  0  0
    3.4907  -12.9572   22.9260 H   0  0  0  0  0  0  0  0  0  0  0  0
    3.7382   -9.5081   23.6953 H   0  0  0  0  0  0  0  0  0  0  0  0
    2.8954  -10.4387   24.8403 H   0  0  0  0  0  0  0  0  0  0  0  0
    3.4039   -7.9324   25.2525 H   0  0  0  0  0  0  0  0  0  0  0  0
    3.6529   -8.9937   26.5893 H   0  0  0  0  0  0  0  0  0  0  0  0
    5.5238   -7.5337   26.5996 H   0  0  0  0  0  0  0  0  0  0  0  0
    5.6917   -7.5796   24.8754 H   0  0  0  0  0  0  0  0  0  0  0  0
    6.8345   -9.3975   26.9410 H   0  0  0  0  0  0  0  0  0  0  0  0
    7.4922   -8.9207   25.3912 H   0  0  0  0  0  0  0  0  0  0  0  0
  1  2  1  0
  2  3  1  0
  3  4  1  0
  4  5  2  0
  5  6  1  0
  6  7  1  0
  7  8  2  0
  8  9  1  0
  9 10  2  0
 10 11  1  0
 11 12  2  0
  6 13  2  0
 13 14  1  0
  2 15  1  0
 15 16  2  0
 15 17  1  0
 17 18  2  0
 18 19  1  0
 19 20  2  0
 20 21  1  0
 21 22  1  0
 22 23  2  0
 23 24  1  0
 24 25  2  0
 23 26  1  0
 26 27  1  0
 27 28  1  0
 28 29  1  0
 14  4  1  0
 25 17  1  0
 12  7  1  0
 24 20  1  0
 29 22  1  0
  1 30  1  0
  1 31  1  0
  1 32  1  0
  3 33  1  0
  3 34  1  0
  5 35  1  0
  8 36  1  0
  9 37  1  0
 10 38  1  0
 11 39  1  0
 18 40  1  0
 19 41  1  0
 21 42  1  0
 25 43  1  0
 26 44  1  0
 26 45  1  0
 27 46  1  0
 27 47  1  0
 28 48  1  0
 28 49  1  0
 29 50  1  0
 29 51  1  0
M  END
>  <Energy>  (601) 
1204.3674690600631

>  <compound_id>  (601) 
57339

>  <target_id>  (601) 
1

>  <reference_id>  (601) 
48

>  <inspiration_ids>  (601) 
[48, 40]

>  <energy_score>  (601) 
1112.0394235243025

>  <distance_score>  (601) 
12.86581217523117

>  <path>  (601) 
/opt/xchem-fragalysis-2/maxwin/BulkDock/SCRATCH/511021/C57339-P48/C57339-P48.minimised.mol

>  <scratch_subdir>  (601) 
/opt/xchem-fragalysis-2/maxwin/BulkDock/SCRATCH/511021/C57339-P48

>  <fragmenstein_runtime>  (601) 
26.683977127075195

>  <fragmenstein_outcome>  (601) 
too moved

>  <fragmenstein_mode>  (601) 
expansion

>  <fragmenstein_error>  (601) 


$$$$
C57339-P40
     RDKit          3D

 51 55  0  0  0  0  0  0  0  0999 V2000
   -3.8177  -12.5335   24.3725 C   0  0  0  0  0  0  0  0  0  0  0  0
   -2.9323  -12.1385   25.3365 N   0  0  0  0  0  0  0  0  0  0  0  0
   -4.0317  -13.1591   23.9103 C   0  0  0  0  0  0  0  0  0  0  0  0
   -3.6483  -14.9193   22.9799 C   0  0  0  0  0  0  0  0  0  0  0  0
   -4.2152  -16.1945   22.0077 C   0  0  0  0  0  0  0  0  0  0  0  0
   -3.7752  -16.5566   20.7113 C   0  0  0  0  0  0  0  0  0  0  0  0
   -4.7638  -17.6882   19.9595 C   0  0  0  0  0  0  0  0  0  0  0  0
   -5.6204  -18.4382   20.6841 C   0  0  0  0  0  0  0  0  0  0  0  0
   -5.8103  -19.5095   19.9625 C   0  0  0  0  0  0  0  0  0  0  0  0
   -6.6176  -19.2233   18.9482 C   0  0  0  0  0  0  0  0  0  0  0  0
   -6.4172  -18.0054   18.5169 C   0  0  0  0  0  0  0  0  0  0  0  0
   -5.1894  -17.5286   18.6996 N   0  0  0  0  0  0  0  0  0  0  0  0
   -2.7646  -15.7338   20.3674 N   0  0  0  0  0  0  0  0  0  0  0  0
   -2.4206  -14.7665   21.5289 O   0  0  0  0  0  0  0  0  0  0  0  0
   -3.0905  -12.1207   27.1026 C   0  0  0  0  0  0  0  0  0  0  0  0
   -3.9796  -12.6049   27.7601 O   0  0  0  0  0  0  0  0  0  0  0  0
   -1.8888  -11.1355   28.2658 C   0  0  0  0  0  0  0  0  0  0  0  0
   -2.0622  -11.1555   29.6312 C   0  0  0  0  0  0  0  0  0  0  0  0
   -1.3962  -10.0341   30.8286 C   0  0  0  0  0  0  0  0  0  0  0  0
   -0.7709   -8.7856   30.5946 C   0  0  0  0  0  0  0  0  0  0  0  0
   -0.5815   -7.6869   31.3649 N   0  0  0  0  0  0  0  0  0  0  0  0
    0.0918   -6.7744   30.6206 C   0  0  0  0  0  0  0  0  0  0  0  0
    0.4622   -7.3703   29.4107 C   0  0  0  0  0  0  0  0  0  0  0  0
   -0.3255   -8.5979   29.3136 C   0  0  0  0  0  0  0  0  0  0  0  0
   -0.7081   -9.9317   28.5228 C   0  0  0  0  0  0  0  0  0  0  0  0
    1.5292   -6.6310   28.6416 C   0  0  0  0  0  0  0  0  0  0  0  0
    1.4842   -5.1068   28.8677 C   0  0  0  0  0  0  0  0  0  0  0  0
    1.5667   -4.7787   30.3603 C   0  0  0  0  0  0  0  0  0  0  0  0
    0.4142   -5.4104   31.1402 C   0  0  0  0  0  0  0  0  0  0  0  0
   -5.1639  -12.1754   24.6758 H   0  0  0  0  0  0  0  0  0  0  0  0
   -4.3513  -11.4141   23.9602 H   0  0  0  0  0  0  0  0  0  0  0  0
   -3.1978  -11.6073   24.0100 H   0  0  0  0  0  0  0  0  0  0  0  0
   -5.2435  -13.4288   23.6841 H   0  0  0  0  0  0  0  0  0  0  0  0
   -3.0684  -14.2648   23.9132 H   0  0  0  0  0  0  0  0  0  0  0  0
   -4.8991  -16.9892   22.1626 H   0  0  0  0  0  0  0  0  0  0  0  0
   -5.8336  -18.4674   21.7315 H   0  0  0  0  0  0  0  0  0  0  0  0
   -5.3972  -20.4141   20.3354 H   0  0  0  0  0  0  0  0  0  0  0  0
   -7.2780  -19.8214   18.3456 H   0  0  0  0  0  0  0  0  0  0  0  0
   -7.1535  -17.5745   17.8557 H   0  0  0  0  0  0  0  0  0  0  0  0
   -2.8451  -11.9179   29.8115 H   0  0  0  0  0  0  0  0  0  0  0  0
   -1.7413  -10.0004   31.8575 H   0  0  0  0  0  0  0  0  0  0  0  0
   -0.9012   -7.5693   32.3196 H   0  0  0  0  0  0  0  0  0  0  0  0
   -0.0271  -10.4224   29.2364 H   0  0  0  0  0  0  0  0  0  0  0  0
    2.5141   -6.9552   28.9875 H   0  0  0  0  0  0  0  0  0  0  0  0
    1.5562   -6.8215   27.5931 H   0  0  0  0  0  0  0  0  0  0  0  0
    2.3257   -4.6382   28.3444 H   0  0  0  0  0  0  0  0  0  0  0  0
    0.5667   -4.6762   28.4525 H   0  0  0  0  0  0  0  0  0  0  0  0
    2.5207   -5.1487   30.7540 H   0  0  0  0  0  0  0  0  0  0  0  0
    1.5651   -3.6933   30.5113 H   0  0  0  0  0  0  0  0  0  0  0  0
   -0.4794   -4.7826   31.0369 H   0  0  0  0  0  0  0  0  0  0  0  0
    0.6651   -5.4461   32.2064 H   0  0  0  0  0  0  0  0  0  0  0  0
  1  2  1  0
  2  3  1  0
  3  4  1  0
  4  5  2  0
  5  6  1  0
  6  7  1  0
  7  8  2  0
  8  9  1  0
  9 10  2  0
 10 11  1  0
 11 12  2  0
  6 13  2  0
 13 14  1  0
  2 15  1  0
 15 16  2  0
 15 17  1  0
 17 18  2  0
 18 19  1  0
 19 20  2  0
 20 21  1  0
 21 22  1  0
 22 23  2  0
 23 24  1  0
 24 25  2  0
 23 26  1  0
 26 27  1  0
 27 28  1  0
 28 29  1  0
 14  4  1  0
 25 17  1  0
 12  7  1  0
 24 20  1  0
 29 22  1  0
  1 30  1  0
  1 31  1  0
  1 32  1  0
  3 33  1  0
  3 34  1  0
  5 35  1  0
  8 36  1  0
  9 37  1  0
 10 38  1  0
 11 39  1  0
 18 40  1  0
 19 41  1  0
 21 42  1  0
 25 43  1  0
 26 44  1  0
 26 45  1  0
 27 46  1  0
 27 47  1  0
 28 48  1  0
 28 49  1  0
 29 50  1  0
 29 51  1  0
M  END
>  <Energy>  (602) 
1659.4930319315106

>  <compound_id>  (602) 
57339

>  <target_id>  (602) 
1

>  <reference_id>  (602) 
40

>  <inspiration_ids>  (602) 
[48, 40]

>  <energy_score>  (602) 
1567.1649863957414

>  <distance_score>  (602) 
10.136428853231715

>  <path>  (602) 
/opt/xchem-fragalysis-2/maxwin/BulkDock/SCRATCH/511021/C57339-P40/C57339-P40.minimised.mol

>  <scratch_subdir>  (602) 
/opt/xchem-fragalysis-2/maxwin/BulkDock/SCRATCH/511021/C57339-P40

>  <fragmenstein_runtime>  (602) 
30.107338666915894

>  <fragmenstein_outcome>  (602) 
too moved

>  <fragmenstein_mode>  (602) 
expansion

>  <fragmenstein_error>  (602) 


$$$$
C57340-P48
     RDKit          3D

 45 48  0  0  0  0  0  0  0  0999 V2000
   -9.1121   -7.1578   26.7893 O   0  0  0  0  0  0  0  0  0  0  0  0
   -8.6575   -8.2690   26.7503 C   0  0  0  0  0  0  0  0  0  0  0  0
   -8.7550   -9.3100   25.7057 N   0  0  0  0  0  0  0  0  0  0  0  0
   -9.5361   -9.3396   24.4119 C   0  0  0  0  0  0  0  0  0  0  0  0
   -9.3863  -10.2690   23.1575 C   0  0  0  0  0  0  0  0  0  0  0  0
   -8.2274  -10.3596   22.3825 C   0  0  0  0  0  0  0  0  0  0  0  0
   -8.2488  -11.0120   21.1225 C   0  0  0  0  0  0  0  0  0  0  0  0
   -9.4218  -11.5783   20.6379 C   0  0  0  0  0  0  0  0  0  0  0  0
  -10.5346  -11.4527   21.4410 C   0  0  0  0  0  0  0  0  0  0  0  0
  -10.5400  -10.8240   22.6581 N   0  0  0  0  0  0  0  0  0  0  0  0
   -7.8668   -8.5620   28.0502 C   0  0  0  0  0  0  0  0  0  0  0  0
   -8.4919   -8.8385   29.2631 C   0  0  0  0  0  0  0  0  0  0  0  0
   -7.7885   -8.9146   30.5028 C   0  0  0  0  0  0  0  0  0  0  0  0
   -6.4153   -8.6044   30.5570 C   0  0  0  0  0  0  0  0  0  0  0  0
   -5.3428   -8.7352   31.7555 N   0  0  0  0  0  0  0  0  0  0  0  0
   -3.7603   -8.3642   31.3863 C   0  0  0  0  0  0  0  0  0  0  0  0
   -3.7566   -7.7431   29.8427 C   0  0  0  0  0  0  0  0  0  0  0  0
   -5.6308   -8.0909   29.2780 C   0  0  0  0  0  0  0  0  0  0  0  0
   -6.5113   -8.1792   28.1459 C   0  0  0  0  0  0  0  0  0  0  0  0
   -2.1519   -7.3118   29.3271 C   0  0  0  0  0  0  0  0  0  0  0  0
   -0.9744   -7.0443   30.3176 C   0  0  0  0  0  0  0  0  0  0  0  0
   -1.1111   -6.4276   31.6764 C   0  0  0  0  0  0  0  0  0  0  0  0
   -1.6186   -7.3792   32.7272 C   0  0  0  0  0  0  0  0  0  0  0  0
   -2.5226   -8.5357   32.3144 C   0  0  0  0  0  0  0  0  0  0  0  0
   -8.3183  -10.1609   26.0432 H   0  0  0  0  0  0  0  0  0  0  0  0
  -10.5717   -9.4654   24.7545 H   0  0  0  0  0  0  0  0  0  0  0  0
   -9.4867   -8.3111   24.0315 H   0  0  0  0  0  0  0  0  0  0  0  0
   -7.3154   -9.8732   22.7139 H   0  0  0  0  0  0  0  0  0  0  0  0
   -7.3405  -11.0404   20.5231 H   0  0  0  0  0  0  0  0  0  0  0  0
   -9.4685  -12.0819   19.6807 H   0  0  0  0  0  0  0  0  0  0  0  0
  -11.4988  -11.8473   21.1455 H   0  0  0  0  0  0  0  0  0  0  0  0
   -9.5648   -9.0257   29.2678 H   0  0  0  0  0  0  0  0  0  0  0  0
   -8.3185   -9.2139   31.4016 H   0  0  0  0  0  0  0  0  0  0  0  0
   -5.5600   -9.2518   32.5871 H   0  0  0  0  0  0  0  0  0  0  0  0
   -5.9688   -8.3912   27.2828 H   0  0  0  0  0  0  0  0  0  0  0  0
   -1.6379   -8.1292   28.8488 H   0  0  0  0  0  0  0  0  0  0  0  0
   -2.2285   -6.6164   28.5103 H   0  0  0  0  0  0  0  0  0  0  0  0
   -0.2763   -6.3756   29.8048 H   0  0  0  0  0  0  0  0  0  0  0  0
   -0.4089   -7.9813   30.4377 H   0  0  0  0  0  0  0  0  0  0  0  0
   -1.6502   -5.4855   31.6385 H   0  0  0  0  0  0  0  0  0  0  0  0
   -0.1077   -6.1142   32.0020 H   0  0  0  0  0  0  0  0  0  0  0  0
   -0.7360   -7.8470   33.1904 H   0  0  0  0  0  0  0  0  0  0  0  0
   -2.0442   -6.8023   33.5525 H   0  0  0  0  0  0  0  0  0  0  0  0
   -1.8847   -9.3007   31.8568 H   0  0  0  0  0  0  0  0  0  0  0  0
   -2.8486   -8.9164   33.2805 H   0  0  0  0  0  0  0  0  0  0  0  0
  1  2  2  0
  2  3  1  0
  3  4  1  0
  4  5  1  0
  5  6  2  0
  6  7  1  0
  7  8  2  0
  8  9  1  0
  9 10  2  0
  2 11  1  0
 11 12  2  0
 12 13  1  0
 13 14  2  0
 14 15  1  0
 15 16  1  0
 16 17  2  0
 17 18  1  0
 18 19  2  0
 17 20  1  0
 20 21  1  0
 21 22  1  0
 22 23  1  0
 23 24  1  0
 10  5  1  0
 19 11  1  0
 18 14  1  0
 24 16  1  0
  3 25  1  0
  4 26  1  0
  4 27  1  0
  6 28  1  0
  7 29  1  0
  8 30  1  0
  9 31  1  0
 12 32  1  0
 13 33  1  0
 15 34  1  0
 19 35  1  0
 20 36  1  0
 20 37  1  0
 21 38  1  0
 21 39  1  0
 22 40  1  0
 22 41  1  0
 23 42  1  0
 23 43  1  0
 24 44  1  0
 24 45  1  0
M  END
>  <Energy>  (603) 
297.70700179875109

>  <compound_id>  (603) 
57340

>  <target_id>  (603) 
1

>  <reference_id>  (603) 
48

>  <inspiration_ids>  (603) 
[48, 40]

>  <energy_score>  (603) 
227.65436223113232

>  <distance_score>  (603) 
14.09248677705933

>  <path>  (603) 
/opt/xchem-fragalysis-2/maxwin/BulkDock/SCRATCH/511021/C57340-P48/C57340-P48.minimised.mol

>  <scratch_subdir>  (603) 
/opt/xchem-fragalysis-2/maxwin/BulkDock/SCRATCH/511021/C57340-P48

>  <fragmenstein_runtime>  (603) 
29.45087170600891

>  <fragmenstein_outcome>  (603) 
too moved

>  <fragmenstein_mode>  (603) 
expansion

>  <fragmenstein_error>  (603) 


$$$$
C57340-P40
     RDKit          3D

 45 48  0  0  0  0  0  0  0  0999 V2000
   -6.1139  -17.9459   22.2265 O   0  0  0  0  0  0  0  0  0  0  0  0
   -5.3221  -17.3876   21.5046 C   0  0  0  0  0  0  0  0  0  0  0  0
   -5.2723  -18.2005   19.6737 N   0  0  0  0  0  0  0  0  0  0  0  0
   -6.3991  -19.7171   18.7303 C   0  0  0  0  0  0  0  0  0  0  0  0
   -6.8563  -21.2852   17.2570 C   0  0  0  0  0  0  0  0  0  0  0  0
   -7.8323  -22.1832   15.7429 C   0  0  0  0  0  0  0  0  0  0  0  0
   -7.8573  -23.5201   14.9494 C   0  0  0  0  0  0  0  0  0  0  0  0
   -6.9066  -24.4569   15.2877 C   0  0  0  0  0  0  0  0  0  0  0  0
   -6.0400  -24.0657   16.3217 C   0  0  0  0  0  0  0  0  0  0  0  0
   -5.9728  -22.7391   17.1433 N   0  0  0  0  0  0  0  0  0  0  0  0
   -4.3735  -15.7335   22.5923 C   0  0  0  0  0  0  0  0  0  0  0  0
   -5.2589  -14.7122   23.7660 C   0  0  0  0  0  0  0  0  0  0  0  0
   -5.2184  -13.3350   24.6786 C   0  0  0  0  0  0  0  0  0  0  0  0
   -4.0488  -12.8628   25.4006 C   0  0  0  0  0  0  0  0  0  0  0  0
   -2.8958  -11.8358   25.0844 N   0  0  0  0  0  0  0  0  0  0  0  0
   -2.2734  -10.5447   26.2846 C   0  0  0  0  0  0  0  0  0  0  0  0
   -2.7242  -12.1524   26.7617 C   0  0  0  0  0  0  0  0  0  0  0  0
   -3.0677  -13.7542   25.6515 C   0  0  0  0  0  0  0  0  0  0  0  0
   -3.5420  -14.8981   24.1685 C   0  0  0  0  0  0  0  0  0  0  0  0
   -2.5355  -11.7453   28.5836 C   0  0  0  0  0  0  0  0  0  0  0  0
   -1.2642  -10.3195   29.2003 C   0  0  0  0  0  0  0  0  0  0  0  0
   -1.0032   -8.4691   29.0481 C   0  0  0  0  0  0  0  0  0  0  0  0
   -2.1882   -7.5565   28.1483 C   0  0  0  0  0  0  0  0  0  0  0  0
   -2.9206   -8.4305   26.4541 C   0  0  0  0  0  0  0  0  0  0  0  0
   -4.5329  -17.7449   19.1504 H   0  0  0  0  0  0  0  0  0  0  0  0
   -7.0367  -18.9624   18.2684 H   0  0  0  0  0  0  0  0  0  0  0  0
   -5.3757  -19.7483   18.3421 H   0  0  0  0  0  0  0  0  0  0  0  0
   -8.9656  -21.9063   15.6620 H   0  0  0  0  0  0  0  0  0  0  0  0
   -8.6580  -23.7029   14.2451 H   0  0  0  0  0  0  0  0  0  0  0  0
   -6.8273  -25.4215   14.8113 H   0  0  0  0  0  0  0  0  0  0  0  0
   -5.2235  -24.7183   16.6246 H   0  0  0  0  0  0  0  0  0  0  0  0
   -6.2092  -15.1981   24.1382 H   0  0  0  0  0  0  0  0  0  0  0  0
   -6.1789  -13.1565   25.1834 H   0  0  0  0  0  0  0  0  0  0  0  0
   -3.0913  -11.4268   24.1906 H   0  0  0  0  0  0  0  0  0  0  0  0
   -3.2004  -15.7006   24.8907 H   0  0  0  0  0  0  0  0  0  0  0  0
   -3.5387  -11.7122   28.9900 H   0  0  0  0  0  0  0  0  0  0  0  0
   -2.3716  -12.7136   29.0657 H   0  0  0  0  0  0  0  0  0  0  0  0
   -0.3574  -10.3910   28.6532 H   0  0  0  0  0  0  0  0  0  0  0  0
   -1.0895  -10.5166   30.2624 H   0  0  0  0  0  0  0  0  0  0  0  0
   -0.0048   -8.2783   28.6425 H   0  0  0  0  0  0  0  0  0  0  0  0
   -0.9739   -8.0713   30.0747 H   0  0  0  0  0  0  0  0  0  0  0  0
   -3.0701   -7.4987   28.7968 H   0  0  0  0  0  0  0  0  0  0  0  0
   -2.2060   -6.5047   28.2980 H   0  0  0  0  0  0  0  0  0  0  0  0
   -3.9249   -8.1532   26.9215 H   0  0  0  0  0  0  0  0  0  0  0  0
   -2.6214   -7.5083   25.9682 H   0  0  0  0  0  0  0  0  0  0  0  0
  1  2  2  0
  2  3  1  0
  3  4  1  0
  4  5  1  0
  5  6  2  0
  6  7  1  0
  7  8  2  0
  8  9  1  0
  9 10  2  0
  2 11  1  0
 11 12  2  0
 12 13  1  0
 13 14  2  0
 14 15  1  0
 15 16  1  0
 16 17  2  0
 17 18  1  0
 18 19  2  0
 17 20  1  0
 20 21  1  0
 21 22  1  0
 22 23  1  0
 23 24  1  0
 10  5  1  0
 19 11  1  0
 18 14  1  0
 24 16  1  0
  3 25  1  0
  4 26  1  0
  4 27  1  0
  6 28  1  0
  7 29  1  0
  8 30  1  0
  9 31  1  0
 12 32  1  0
 13 33  1  0
 15 34  1  0
 19 35  1  0
 20 36  1  0
 20 37  1  0
 21 38  1  0
 21 39  1  0
 22 40  1  0
 22 41  1  0
 23 42  1  0
 23 43  1  0
 24 44  1  0
 24 45  1  0
M  END
>  <Energy>  (604) 
2242.6792948296857

>  <compound_id>  (604) 
57340

>  <target_id>  (604) 
1

>  <reference_id>  (604) 
40

>  <inspiration_ids>  (604) 
[48, 40]

>  <energy_score>  (604) 
2172.6266552620827

>  <distance_score>  (604) 
11.4187052305628

>  <path>  (604) 
/opt/xchem-fragalysis-2/maxwin/BulkDock/SCRATCH/511021/C57340-P40/C57340-P40.minimised.mol

>  <scratch_subdir>  (604) 
/opt/xchem-fragalysis-2/maxwin/BulkDock/SCRATCH/511021/C57340-P40

>  <fragmenstein_runtime>  (604) 
14.898314476013184

>  <fragmenstein_outcome>  (604) 
too moved

>  <fragmenstein_mode>  (604) 
expansion

>  <fragmenstein_error>  (604) 


$$$$
C57341-P48
     RDKit          3D

 42 45  0  0  0  0  0  0  0  0999 V2000
   -2.7453  -12.2840   29.7549 O   0  0  0  0  0  0  0  0  0  0  0  0
   -2.3706  -11.5878   28.9064 C   0  0  0  0  0  0  0  0  0  0  0  0
   -2.5851  -11.8810   27.3525 N   0  0  0  0  0  0  0  0  0  0  0  0
   -3.1537  -13.0553   26.6492 C   0  0  0  0  0  0  0  0  0  0  0  0
   -4.4080  -13.6886   26.0804 C   0  0  0  0  0  0  0  0  0  0  0  0
   -5.6983  -13.4795   26.5331 C   0  0  0  0  0  0  0  0  0  0  0  0
   -6.7074  -14.3571   26.1395 C   0  0  0  0  0  0  0  0  0  0  0  0
   -6.3835  -15.4650   25.3810 C   0  0  0  0  0  0  0  0  0  0  0  0
   -5.0851  -15.6473   24.9786 C   0  0  0  0  0  0  0  0  0  0  0  0
   -4.1237  -14.7622   25.2628 N   0  0  0  0  0  0  0  0  0  0  0  0
   -1.2995  -10.1271   29.6661 C   0  0  0  0  0  0  0  0  0  0  0  0
   -1.4305   -9.7884   31.0498 C   0  0  0  0  0  0  0  0  0  0  0  0
   -1.1201   -8.6112   31.8050 C   0  0  0  0  0  0  0  0  0  0  0  0
   -0.3216   -7.6768   31.2232 C   0  0  0  0  0  0  0  0  0  0  0  0
    0.0812   -6.4624   31.7098 N   0  0  0  0  0  0  0  0  0  0  0  0
    0.9857   -5.9185   30.8633 C   0  0  0  0  0  0  0  0  0  0  0  0
    1.2421   -6.8212   29.8529 C   0  0  0  0  0  0  0  0  0  0  0  0
    0.2405   -7.9312   29.9845 C   0  0  0  0  0  0  0  0  0  0  0  0
   -0.3410   -9.1296   29.2169 C   0  0  0  0  0  0  0  0  0  0  0  0
    2.3244   -6.4361   28.8593 C   0  0  0  0  0  0  0  0  0  0  0  0
    3.4020   -5.4637   29.3915 C   0  0  0  0  0  0  0  0  0  0  0  0
    3.0708   -4.6395   30.6523 C   0  0  0  0  0  0  0  0  0  0  0  0
    1.5911   -4.5732   31.0197 C   0  0  0  0  0  0  0  0  0  0  0  0
   -2.0973  -11.1757   26.8219 H   0  0  0  0  0  0  0  0  0  0  0  0
   -2.3692  -13.2538   25.9226 H   0  0  0  0  0  0  0  0  0  0  0  0
   -2.9482  -13.8133   27.4240 H   0  0  0  0  0  0  0  0  0  0  0  0
   -5.9096  -12.6779   27.2366 H   0  0  0  0  0  0  0  0  0  0  0  0
   -7.7244  -14.2019   26.4853 H   0  0  0  0  0  0  0  0  0  0  0  0
   -7.1357  -16.1556   25.0766 H   0  0  0  0  0  0  0  0  0  0  0  0
   -4.7770  -16.5048   24.3912 H   0  0  0  0  0  0  0  0  0  0  0  0
   -2.0404  -10.3602   31.6644 H   0  0  0  0  0  0  0  0  0  0  0  0
   -1.5034   -8.4970   32.8158 H   0  0  0  0  0  0  0  0  0  0  0  0
   -0.2427   -6.0497   32.5753 H   0  0  0  0  0  0  0  0  0  0  0  0
    0.0292   -9.2144   28.2310 H   0  0  0  0  0  0  0  0  0  0  0  0
    2.7829   -7.3211   28.4150 H   0  0  0  0  0  0  0  0  0  0  0  0
    1.8963   -5.8709   28.0342 H   0  0  0  0  0  0  0  0  0  0  0  0
    4.3395   -6.0086   29.5460 H   0  0  0  0  0  0  0  0  0  0  0  0
    3.6427   -4.7601   28.5819 H   0  0  0  0  0  0  0  0  0  0  0  0
    3.6118   -5.0633   31.5056 H   0  0  0  0  0  0  0  0  0  0  0  0
    3.4679   -3.6232   30.5398 H   0  0  0  0  0  0  0  0  0  0  0  0
    1.0766   -3.8714   30.3522 H   0  0  0  0  0  0  0  0  0  0  0  0
    1.4755   -4.1969   32.0421 H   0  0  0  0  0  0  0  0  0  0  0  0
  1  2  2  0
  2  3  1  0
  3  4  1  0
  4  5  1  0
  5  6  2  0
  6  7  1  0
  7  8  2  0
  8  9  1  0
  9 10  2  0
  2 11  1  0
 11 12  2  0
 12 13  1  0
 13 14  2  0
 14 15  1  0
 15 16  1  0
 16 17  2  0
 17 18  1  0
 18 19  2  0
 17 20  1  0
 20 21  1  0
 21 22  1  0
 22 23  1  0
 10  5  1  0
 19 11  1  0
 18 14  1  0
 23 16  1  0
  3 24  1  0
  4 25  1  0
  4 26  1  0
  6 27  1  0
  7 28  1  0
  8 29  1  0
  9 30  1  0
 12 31  1  0
 13 32  1  0
 15 33  1  0
 19 34  1  0
 20 35  1  0
 20 36  1  0
 21 37  1  0
 21 38  1  0
 22 39  1  0
 22 40  1  0
 23 41  1  0
 23 42  1  0
M  END
>  <Energy>  (605) 
207.1402830323396

>  <compound_id>  (605) 
57341

>  <target_id>  (605) 
1

>  <reference_id>  (605) 
48

>  <inspiration_ids>  (605) 
[48, 40]

>  <energy_score>  (605) 
143.03525091793847

>  <distance_score>  (605) 
13.72687463156951

>  <path>  (605) 
/opt/xchem-fragalysis-2/maxwin/BulkDock/SCRATCH/511021/C57341-P48/C57341-P48.minimised.mol

>  <scratch_subdir>  (605) 
/opt/xchem-fragalysis-2/maxwin/BulkDock/SCRATCH/511021/C57341-P48

>  <fragmenstein_runtime>  (605) 
10.435035943984985

>  <fragmenstein_outcome>  (605) 
too moved

>  <fragmenstein_mode>  (605) 
expansion

>  <fragmenstein_error>  (605) 


$$$$
C57341-P40
     RDKit          3D

 42 45  0  0  0  0  0  0  0  0999 V2000
   -3.0934  -18.6196   25.1633 O   0  0  0  0  0  0  0  0  0  0  0  0
   -3.1008  -17.6194   24.4989 C   0  0  0  0  0  0  0  0  0  0  0  0
   -2.7194  -17.4000   23.1108 N   0  0  0  0  0  0  0  0  0  0  0  0
   -2.1156  -18.3082   22.1208 C   0  0  0  0  0  0  0  0  0  0  0  0
   -2.7294  -18.5752   20.7243 C   0  0  0  0  0  0  0  0  0  0  0  0
   -1.9344  -19.3039   19.8186 C   0  0  0  0  0  0  0  0  0  0  0  0
   -2.4040  -19.6174   18.5478 C   0  0  0  0  0  0  0  0  0  0  0  0
   -3.6765  -19.2196   18.2055 C   0  0  0  0  0  0  0  0  0  0  0  0
   -4.4419  -18.5713   19.1646 C   0  0  0  0  0  0  0  0  0  0  0  0
   -3.9925  -18.2048   20.4005 N   0  0  0  0  0  0  0  0  0  0  0  0
   -3.4845  -16.3719   25.3171 C   0  0  0  0  0  0  0  0  0  0  0  0
   -3.9798  -15.2076   24.7484 C   0  0  0  0  0  0  0  0  0  0  0  0
   -4.2787  -14.0375   25.4733 C   0  0  0  0  0  0  0  0  0  0  0  0
   -4.1810  -14.1008   26.8604 C   0  0  0  0  0  0  0  0  0  0  0  0
   -4.5836  -13.2070   27.8362 N   0  0  0  0  0  0  0  0  0  0  0  0
   -4.7316  -13.9082   29.0029 C   0  0  0  0  0  0  0  0  0  0  0  0
   -4.0239  -15.0879   28.8887 C   0  0  0  0  0  0  0  0  0  0  0  0
   -3.7404  -15.2593   27.5044 C   0  0  0  0  0  0  0  0  0  0  0  0
   -3.3328  -16.3729   26.7213 C   0  0  0  0  0  0  0  0  0  0  0  0
   -3.9788  -16.0873   29.9953 C   0  0  0  0  0  0  0  0  0  0  0  0
   -5.2833  -16.0194   30.8115 C   0  0  0  0  0  0  0  0  0  0  0  0
   -5.6084  -14.5794   31.2502 C   0  0  0  0  0  0  0  0  0  0  0  0
   -5.7223  -13.5869   30.0715 C   0  0  0  0  0  0  0  0  0  0  0  0
   -2.9322  -16.4484   22.8571 H   0  0  0  0  0  0  0  0  0  0  0  0
   -1.1175  -17.8859   21.9494 H   0  0  0  0  0  0  0  0  0  0  0  0
   -1.9729  -19.2745   22.6183 H   0  0  0  0  0  0  0  0  0  0  0  0
   -0.9374  -19.6248   20.1088 H   0  0  0  0  0  0  0  0  0  0  0  0
   -1.7892  -20.1743   17.8492 H   0  0  0  0  0  0  0  0  0  0  0  0
   -4.0606  -19.4754   17.2325 H   0  0  0  0  0  0  0  0  0  0  0  0
   -5.4784  -18.3150   18.9686 H   0  0  0  0  0  0  0  0  0  0  0  0
   -4.2126  -15.2380   23.7029 H   0  0  0  0  0  0  0  0  0  0  0  0
   -4.6936  -13.1798   24.9598 H   0  0  0  0  0  0  0  0  0  0  0  0
   -5.0046  -12.3019   27.6602 H   0  0  0  0  0  0  0  0  0  0  0  0
   -2.9954  -17.2780   27.2209 H   0  0  0  0  0  0  0  0  0  0  0  0
   -3.8452  -17.1028   29.6079 H   0  0  0  0  0  0  0  0  0  0  0  0
   -3.1232  -15.8675   30.6440 H   0  0  0  0  0  0  0  0  0  0  0  0
   -6.1160  -16.4062   30.2100 H   0  0  0  0  0  0  0  0  0  0  0  0
   -5.1962  -16.6638   31.6935 H   0  0  0  0  0  0  0  0  0  0  0  0
   -4.8223  -14.2592   31.9412 H   0  0  0  0  0  0  0  0  0  0  0  0
   -6.5433  -14.5672   31.8226 H   0  0  0  0  0  0  0  0  0  0  0  0
   -5.6428  -12.5517   30.4111 H   0  0  0  0  0  0  0  0  0  0  0  0
   -6.7256  -13.6904   29.6373 H   0  0  0  0  0  0  0  0  0  0  0  0
  1  2  2  0
  2  3  1  0
  3  4  1  0
  4  5  1  0
  5  6  2  0
  6  7  1  0
  7  8  2  0
  8  9  1  0
  9 10  2  0
  2 11  1  0
 11 12  2  0
 12 13  1  0
 13 14  2  0
 14 15  1  0
 15 16  1  0
 16 17  2  0
 17 18  1  0
 18 19  2  0
 17 20  1  0
 20 21  1  0
 21 22  1  0
 22 23  1  0
 10  5  1  0
 19 11  1  0
 18 14  1  0
 23 16  1  0
  3 24  1  0
  4 25  1  0
  4 26  1  0
  6 27  1  0
  7 28  1  0
  8 29  1  0
  9 30  1  0
 12 31  1  0
 13 32  1  0
 15 33  1  0
 19 34  1  0
 20 35  1  0
 20 36  1  0
 21 37  1  0
 21 38  1  0
 22 39  1  0
 22 40  1  0
 23 41  1  0
 23 42  1  0
M  END
>  <Energy>  (606) 
65.71438058951378

>  <compound_id>  (606) 
57341

>  <target_id>  (606) 
1

>  <reference_id>  (606) 
40

>  <inspiration_ids>  (606) 
[48, 40]

>  <energy_score>  (606) 
1.6093484751095275

>  <distance_score>  (606) 
13.52907145332079

>  <path>  (606) 
/opt/xchem-fragalysis-2/maxwin/BulkDock/SCRATCH/511021/C57341-P40/C57341-P40.minimised.mol

>  <scratch_subdir>  (606) 
/opt/xchem-fragalysis-2/maxwin/BulkDock/SCRATCH/511021/C57341-P40

>  <fragmenstein_runtime>  (606) 
15.167684555053711

>  <fragmenstein_outcome>  (606) 
too moved

>  <fragmenstein_mode>  (606) 
expansion

>  <fragmenstein_error>  (606) 


$$$$
C57333-P48
     RDKit          3D

 45 48  0  0  0  0  0  0  0  0999 V2000
   -1.8916  -13.1938   26.2389 O   0  0  0  0  0  0  0  0  0  0  0  0
   -2.6583  -12.5309   26.8658 C   0  0  0  0  0  0  0  0  0  0  0  0
   -3.9938  -12.8398   27.3409 N   0  0  0  0  0  0  0  0  0  0  0  0
   -4.8043  -14.1328   27.2833 C   0  0  0  0  0  0  0  0  0  0  0  0
   -5.1841  -15.1034   26.0504 C   0  0  0  0  0  0  0  0  0  0  0  0
   -4.2149  -15.8006   25.3164 C   0  0  0  0  0  0  0  0  0  0  0  0
   -4.5282  -16.9807   24.5724 C   0  0  0  0  0  0  0  0  0  0  0  0
   -5.8290  -17.4656   24.5514 C   0  0  0  0  0  0  0  0  0  0  0  0
   -6.1922  -18.5248   23.7912 F   0  0  0  0  0  0  0  0  0  0  0  0
   -6.7608  -16.7108   25.2450 C   0  0  0  0  0  0  0  0  0  0  0  0
   -6.4811  -15.5666   25.9782 N   0  0  0  0  0  0  0  0  0  0  0  0
   -1.8821  -10.8747   27.2836 C   0  0  0  0  0  0  0  0  0  0  0  0
   -2.1407   -9.6201   26.1071 C   0  0  0  0  0  0  0  0  0  0  0  0
   -2.3862   -7.8322   26.6847 C   0  0  0  0  0  0  0  0  0  0  0  0
   -1.9400   -7.5436   28.3708 C   0  0  0  0  0  0  0  0  0  0  0  0
   -1.5836   -6.4042   29.0429 N   0  0  0  0  0  0  0  0  0  0  0  0
   -1.0267   -6.5119   30.2848 C   0  0  0  0  0  0  0  0  0  0  0  0
   -0.3920   -7.6944   30.0960 C   0  0  0  0  0  0  0  0  0  0  0  0
   -1.0889   -8.5003   29.1292 C   0  0  0  0  0  0  0  0  0  0  0  0
   -1.0380  -10.0123   28.6013 C   0  0  0  0  0  0  0  0  0  0  0  0
    0.9960   -7.7281   30.4478 C   0  0  0  0  0  0  0  0  0  0  0  0
    1.7440   -6.3624   30.2231 C   0  0  0  0  0  0  0  0  0  0  0  0
    1.7467   -5.5075   31.4901 C   0  0  0  0  0  0  0  0  0  0  0  0
    0.3765   -5.4280   32.1481 C   0  0  0  0  0  0  0  0  0  0  0  0
   -0.7344   -5.2766   31.1218 C   0  0  0  0  0  0  0  0  0  0  0  0
   -4.3265  -12.0715   27.9160 H   0  0  0  0  0  0  0  0  0  0  0  0
   -5.7673  -13.8478   27.7250 H   0  0  0  0  0  0  0  0  0  0  0  0
   -4.3102  -14.7912   28.0089 H   0  0  0  0  0  0  0  0  0  0  0  0
   -3.1910  -15.4622   25.3834 H   0  0  0  0  0  0  0  0  0  0  0  0
   -3.7506  -17.4941   24.0177 H   0  0  0  0  0  0  0  0  0  0  0  0
   -7.8060  -16.9973   25.2386 H   0  0  0  0  0  0  0  0  0  0  0  0
   -2.0471   -9.8079   25.0222 H   0  0  0  0  0  0  0  0  0  0  0  0
   -2.3893   -6.9857   26.0251 H   0  0  0  0  0  0  0  0  0  0  0  0
   -1.5759   -5.5322   28.5202 H   0  0  0  0  0  0  0  0  0  0  0  0
    0.0505  -10.0218   28.6233 H   0  0  0  0  0  0  0  0  0  0  0  0
    1.0475   -8.0129   31.4939 H   0  0  0  0  0  0  0  0  0  0  0  0
    1.3796   -8.4655   29.7349 H   0  0  0  0  0  0  0  0  0  0  0  0
    1.3110   -5.7811   29.4032 H   0  0  0  0  0  0  0  0  0  0  0  0
    2.7810   -6.4973   29.9017 H   0  0  0  0  0  0  0  0  0  0  0  0
    2.0911   -4.4990   31.2303 H   0  0  0  0  0  0  0  0  0  0  0  0
    2.4631   -5.9029   32.2181 H   0  0  0  0  0  0  0  0  0  0  0  0
    0.1986   -6.3104   32.7750 H   0  0  0  0  0  0  0  0  0  0  0  0
    0.3677   -4.5669   32.8276 H   0  0  0  0  0  0  0  0  0  0  0  0
   -0.5097   -4.4303   30.4589 H   0  0  0  0  0  0  0  0  0  0  0  0
   -1.6249   -4.9960   31.6746 H   0  0  0  0  0  0  0  0  0  0  0  0
  1  2  2  0
  2  3  1  0
  3  4  1  0
  4  5  1  0
  5  6  2  0
  6  7  1  0
  7  8  2  0
  8  9  1  0
  8 10  1  0
 10 11  2  0
  2 12  1  0
 12 13  2  0
 13 14  1  0
 14 15  2  0
 15 16  1  0
 16 17  1  0
 17 18  2  0
 18 19  1  0
 19 20  2  0
 18 21  1  0
 21 22  1  0
 22 23  1  0
 23 24  1  0
 24 25  1  0
 11  5  1  0
 20 12  1  0
 19 15  1  0
 25 17  1  0
  3 26  1  0
  4 27  1  0
  4 28  1  0
  6 29  1  0
  7 30  1  0
 10 31  1  0
 13 32  1  0
 14 33  1  0
 16 34  1  0
 20 35  1  0
 21 36  1  0
 21 37  1  0
 22 38  1  0
 22 39  1  0
 23 40  1  0
 23 41  1  0
 24 42  1  0
 24 43  1  0
 25 44  1  0
 25 45  1  0
M  END
>  <Energy>  (607) 
424.07498335614753

>  <compound_id>  (607) 
57333

>  <target_id>  (607) 
1

>  <reference_id>  (607) 
48

>  <inspiration_ids>  (607) 
[48, 40]

>  <energy_score>  (607) 
228.31423084987557

>  <distance_score>  (607) 
12.996236465177041

>  <path>  (607) 
/opt/xchem-fragalysis-2/maxwin/BulkDock/SCRATCH/511021/C57333-P48/C57333-P48.minimised.mol

>  <scratch_subdir>  (607) 
/opt/xchem-fragalysis-2/maxwin/BulkDock/SCRATCH/511021/C57333-P48

>  <fragmenstein_runtime>  (607) 
28.788867950439453

>  <fragmenstein_outcome>  (607) 
too moved

>  <fragmenstein_mode>  (607) 
expansion

>  <fragmenstein_error>  (607) 


$$$$
C57333-P40
     RDKit          3D

 45 48  0  0  0  0  0  0  0  0999 V2000
   -9.0975  -18.3874   24.0488 O   0  0  0  0  0  0  0  0  0  0  0  0
   -8.0884  -19.0417   24.0734 C   0  0  0  0  0  0  0  0  0  0  0  0
   -7.8807  -20.4686   23.8806 N   0  0  0  0  0  0  0  0  0  0  0  0
   -8.8586  -21.5845   23.6930 C   0  0  0  0  0  0  0  0  0  0  0  0
   -9.1628  -22.4014   22.4033 C   0  0  0  0  0  0  0  0  0  0  0  0
  -10.3857  -22.2334   21.7321 C   0  0  0  0  0  0  0  0  0  0  0  0
  -10.8061  -23.1499   20.7526 C   0  0  0  0  0  0  0  0  0  0  0  0
   -9.9888  -24.2109   20.4131 C   0  0  0  0  0  0  0  0  0  0  0  0
  -10.3242  -25.0593   19.4258 F   0  0  0  0  0  0  0  0  0  0  0  0
   -8.8128  -24.3498   21.1214 C   0  0  0  0  0  0  0  0  0  0  0  0
   -8.3957  -23.4942   22.1146 N   0  0  0  0  0  0  0  0  0  0  0  0
   -6.8655  -18.1617   24.4919 C   0  0  0  0  0  0  0  0  0  0  0  0
   -5.5272  -18.3663   24.1465 C   0  0  0  0  0  0  0  0  0  0  0  0
   -4.4838  -17.4876   24.5714 C   0  0  0  0  0  0  0  0  0  0  0  0
   -4.8030  -16.3918   25.3882 C   0  0  0  0  0  0  0  0  0  0  0  0
   -4.0128  -15.4252   25.9697 N   0  0  0  0  0  0  0  0  0  0  0  0
   -4.7539  -14.7010   26.8667 C   0  0  0  0  0  0  0  0  0  0  0  0
   -6.0879  -15.0180   26.6696 C   0  0  0  0  0  0  0  0  0  0  0  0
   -6.1139  -16.1377   25.7749 C   0  0  0  0  0  0  0  0  0  0  0  0
   -7.1333  -17.0205   25.3108 C   0  0  0  0  0  0  0  0  0  0  0  0
   -7.2752  -14.4630   27.3974 C   0  0  0  0  0  0  0  0  0  0  0  0
   -7.0105  -13.1611   28.1509 C   0  0  0  0  0  0  0  0  0  0  0  0
   -6.1554  -13.3234   29.4123 C   0  0  0  0  0  0  0  0  0  0  0  0
   -4.8457  -14.1025   29.2560 C   0  0  0  0  0  0  0  0  0  0  0  0
   -4.1230  -13.8741   27.9287 C   0  0  0  0  0  0  0  0  0  0  0  0
   -6.9080  -20.6868   24.0532 H   0  0  0  0  0  0  0  0  0  0  0  0
   -8.5678  -22.3243   24.4499 H   0  0  0  0  0  0  0  0  0  0  0  0
   -9.8159  -21.1756   24.0414 H   0  0  0  0  0  0  0  0  0  0  0  0
  -11.0481  -21.4154   22.0037 H   0  0  0  0  0  0  0  0  0  0  0  0
  -11.7716  -23.0222   20.2750 H   0  0  0  0  0  0  0  0  0  0  0  0
   -8.1361  -25.1715   20.9092 H   0  0  0  0  0  0  0  0  0  0  0  0
   -5.2603  -19.1933   23.4935 H   0  0  0  0  0  0  0  0  0  0  0  0
   -3.4598  -17.6740   24.2618 H   0  0  0  0  0  0  0  0  0  0  0  0
   -3.0084  -15.3943   25.8983 H   0  0  0  0  0  0  0  0  0  0  0  0
   -8.1550  -16.8280   25.6310 H   0  0  0  0  0  0  0  0  0  0  0  0
   -8.0662  -14.2746   26.6601 H   0  0  0  0  0  0  0  0  0  0  0  0
   -7.6606  -15.2205   28.0910 H   0  0  0  0  0  0  0  0  0  0  0  0
   -6.5499  -12.4263   27.4794 H   0  0  0  0  0  0  0  0  0  0  0  0
   -7.9735  -12.7307   28.4536 H   0  0  0  0  0  0  0  0  0  0  0  0
   -6.7534  -13.8108   30.1927 H   0  0  0  0  0  0  0  0  0  0  0  0
   -5.9286  -12.3232   29.7972 H   0  0  0  0  0  0  0  0  0  0  0  0
   -4.1729  -13.8320   30.0712 H   0  0  0  0  0  0  0  0  0  0  0  0
   -5.0487  -15.1731   29.3970 H   0  0  0  0  0  0  0  0  0  0  0  0
   -4.1070  -12.8192   27.6498 H   0  0  0  0  0  0  0  0  0  0  0  0
   -3.0845  -14.1980   28.0554 H   0  0  0  0  0  0  0  0  0  0  0  0
  1  2  2  0
  2  3  1  0
  3  4  1  0
  4  5  1  0
  5  6  2  0
  6  7  1  0
  7  8  2  0
  8  9  1  0
  8 10  1  0
 10 11  2  0
  2 12  1  0
 12 13  2  0
 13 14  1  0
 14 15  2  0
 15 16  1  0
 16 17  1  0
 17 18  2  0
 18 19  1  0
 19 20  2  0
 18 21  1  0
 21 22  1  0
 22 23  1  0
 23 24  1  0
 24 25  1  0
 11  5  1  0
 20 12  1  0
 19 15  1  0
 25 17  1  0
  3 26  1  0
  4 27  1  0
  4 28  1  0
  6 29  1  0
  7 30  1  0
 10 31  1  0
 13 32  1  0
 14 33  1  0
 16 34  1  0
 20 35  1  0
 21 36  1  0
 21 37  1  0
 22 38  1  0
 22 39  1  0
 23 40  1  0
 23 41  1  0
 24 42  1  0
 24 43  1  0
 25 44  1  0
 25 45  1  0
M  END
>  <Energy>  (608) 
78.976949214210336

>  <compound_id>  (608) 
57333

>  <target_id>  (608) 
1

>  <reference_id>  (608) 
40

>  <inspiration_ids>  (608) 
[48, 40]

>  <energy_score>  (608) 
-116.78380329205515

>  <distance_score>  (608) 
14.006146490634364

>  <path>  (608) 
/opt/xchem-fragalysis-2/maxwin/BulkDock/SCRATCH/511021/C57333-P40/C57333-P40.minimised.mol

>  <scratch_subdir>  (608) 
/opt/xchem-fragalysis-2/maxwin/BulkDock/SCRATCH/511021/C57333-P40

>  <fragmenstein_runtime>  (608) 
22.76841115951538

>  <fragmenstein_outcome>  (608) 
too moved

>  <fragmenstein_mode>  (608) 
expansion

>  <fragmenstein_error>  (608) 


$$$$
C57342-P48
     RDKit          3D

 43 46  0  0  0  0  0  0  0  0999 V2000
   -5.0760  -14.1739   24.4118 O   0  0  0  0  0  0  0  0  0  0  0  0
   -4.1552  -14.7779   24.8872 C   0  0  0  0  0  0  0  0  0  0  0  0
   -3.5453  -16.0456   24.4978 N   0  0  0  0  0  0  0  0  0  0  0  0
   -3.9334  -17.0440   23.4510 C   0  0  0  0  0  0  0  0  0  0  0  0
   -3.9678  -17.2739   21.8682 C   0  0  0  0  0  0  0  0  0  0  0  0
   -5.1496  -17.8688   21.4167 N   0  0  0  0  0  0  0  0  0  0  0  0
   -5.2573  -18.5005   20.1964 C   0  0  0  0  0  0  0  0  0  0  0  0
   -4.2020  -18.6363   19.3358 C   0  0  0  0  0  0  0  0  0  0  0  0
   -2.9957  -18.0953   19.7615 C   0  0  0  0  0  0  0  0  0  0  0  0
   -2.8761  -17.4463   21.0238 C   0  0  0  0  0  0  0  0  0  0  0  0
   -1.6419  -17.0742   21.4352 O   0  0  0  0  0  0  0  0  0  0  0  0
   -3.6179  -14.1422   26.1741 C   0  0  0  0  0  0  0  0  0  0  0  0
   -4.0203  -14.8204   27.3138 C   0  0  0  0  0  0  0  0  0  0  0  0
   -3.9047  -14.2211   28.5517 C   0  0  0  0  0  0  0  0  0  0  0  0
   -3.3079  -12.9682   28.5947 C   0  0  0  0  0  0  0  0  0  0  0  0
   -3.3340  -12.0673   29.5698 N   0  0  0  0  0  0  0  0  0  0  0  0
   -2.2027  -11.1776   29.7211 C   0  0  0  0  0  0  0  0  0  0  0  0
   -1.8288  -10.9613   28.4595 C   0  0  0  0  0  0  0  0  0  0  0  0
   -2.7989  -12.1885   27.5883 C   0  0  0  0  0  0  0  0  0  0  0  0
   -3.0085  -12.8335   26.3197 C   0  0  0  0  0  0  0  0  0  0  0  0
   -0.6210   -9.6004   28.6019 C   0  0  0  0  0  0  0  0  0  0  0  0
   -0.7111   -8.4444   29.6248 C   0  0  0  0  0  0  0  0  0  0  0  0
   -1.0920   -8.8452   30.9795 C   0  0  0  0  0  0  0  0  0  0  0  0
   -1.5830  -10.2690   30.9549 C   0  0  0  0  0  0  0  0  0  0  0  0
   -2.8444  -16.2938   25.1723 H   0  0  0  0  0  0  0  0  0  0  0  0
   -3.2794  -17.8747   23.7561 H   0  0  0  0  0  0  0  0  0  0  0  0
   -4.9266  -17.3438   23.8095 H   0  0  0  0  0  0  0  0  0  0  0  0
   -6.2402  -18.8977   19.9686 H   0  0  0  0  0  0  0  0  0  0  0  0
   -4.2969  -19.1610   18.3943 H   0  0  0  0  0  0  0  0  0  0  0  0
   -2.1225  -18.2195   19.1263 H   0  0  0  0  0  0  0  0  0  0  0  0
   -1.0216  -17.1038   20.6864 H   0  0  0  0  0  0  0  0  0  0  0  0
   -4.5378  -15.7731   27.2348 H   0  0  0  0  0  0  0  0  0  0  0  0
   -4.3118  -14.6888   29.4414 H   0  0  0  0  0  0  0  0  0  0  0  0
   -4.1898  -12.0217   30.0955 H   0  0  0  0  0  0  0  0  0  0  0  0
   -2.7590  -12.2579   25.4575 H   0  0  0  0  0  0  0  0  0  0  0  0
   -0.5392   -9.0347   27.7224 H   0  0  0  0  0  0  0  0  0  0  0  0
    0.3527   -9.9547   28.8348 H   0  0  0  0  0  0  0  0  0  0  0  0
    0.2722   -7.9671   29.7213 H   0  0  0  0  0  0  0  0  0  0  0  0
   -1.4043   -7.6647   29.2935 H   0  0  0  0  0  0  0  0  0  0  0  0
   -1.8557   -8.1567   31.3756 H   0  0  0  0  0  0  0  0  0  0  0  0
   -0.2783   -8.7040   31.6959 H   0  0  0  0  0  0  0  0  0  0  0  0
   -0.7368  -10.8609   31.0558 H   0  0  0  0  0  0  0  0  0  0  0  0
   -2.1301  -10.2023   31.8563 H   0  0  0  0  0  0  0  0  0  0  0  0
  1  2  2  0
  2  3  1  0
  3  4  1  0
  4  5  1  0
  5  6  2  0
  6  7  1  0
  7  8  2  0
  8  9  1  0
  9 10  2  0
 10 11  1  0
  2 12  1  0
 12 13  2  0
 13 14  1  0
 14 15  2  0
 15 16  1  0
 16 17  1  0
 17 18  2  0
 18 19  1  0
 19 20  2  0
 18 21  1  0
 21 22  1  0
 22 23  1  0
 23 24  1  0
 10  5  1  0
 20 12  1  0
 19 15  1  0
 24 17  1  0
  3 25  1  0
  4 26  1  0
  4 27  1  0
  7 28  1  0
  8 29  1  0
  9 30  1  0
 11 31  1  0
 13 32  1  0
 14 33  1  0
 16 34  1  0
 20 35  1  0
 21 36  1  0
 21 37  1  0
 22 38  1  0
 22 39  1  0
 23 40  1  0
 23 41  1  0
 24 42  1  0
 24 43  1  0
M  END
>  <Energy>  (609) 
274.9022794773411

>  <compound_id>  (609) 
57342

>  <target_id>  (609) 
1

>  <reference_id>  (609) 
48

>  <inspiration_ids>  (609) 
[48, 40]

>  <energy_score>  (609) 
191.87449706217444

>  <distance_score>  (609) 
12.964276646796678

>  <path>  (609) 
/opt/xchem-fragalysis-2/maxwin/BulkDock/SCRATCH/511021/C57342-P48/C57342-P48.minimised.mol

>  <scratch_subdir>  (609) 
/opt/xchem-fragalysis-2/maxwin/BulkDock/SCRATCH/511021/C57342-P48

>  <fragmenstein_runtime>  (609) 
14.52401328086853

>  <fragmenstein_outcome>  (609) 
too moved

>  <fragmenstein_mode>  (609) 
expansion

>  <fragmenstein_error>  (609) 


$$$$
C57342-P40
     RDKit          3D

 43 46  0  0  0  0  0  0  0  0999 V2000
   -3.4545   -8.7415   23.0175 O   0  0  0  0  0  0  0  0  0  0  0  0
   -3.5552   -9.3970   23.9758 C   0  0  0  0  0  0  0  0  0  0  0  0
   -4.3436  -10.9820   23.5506 N   0  0  0  0  0  0  0  0  0  0  0  0
   -4.9553  -11.5093   22.2766 C   0  0  0  0  0  0  0  0  0  0  0  0
   -5.7014  -10.6001   21.1775 C   0  0  0  0  0  0  0  0  0  0  0  0
   -6.5752   -9.6345   21.5471 N   0  0  0  0  0  0  0  0  0  0  0  0
   -7.1261   -8.8724   20.5473 C   0  0  0  0  0  0  0  0  0  0  0  0
   -6.9985   -9.1019   19.1770 C   0  0  0  0  0  0  0  0  0  0  0  0
   -6.1897  -10.1418   18.7751 C   0  0  0  0  0  0  0  0  0  0  0  0
   -5.5114  -10.8569   19.7648 C   0  0  0  0  0  0  0  0  0  0  0  0
   -4.6537  -11.8104   19.2962 O   0  0  0  0  0  0  0  0  0  0  0  0
   -3.0299   -8.5674   26.0169 C   0  0  0  0  0  0  0  0  0  0  0  0
   -3.3973   -7.6045   27.2356 C   0  0  0  0  0  0  0  0  0  0  0  0
   -2.7350   -7.1781   28.8550 C   0  0  0  0  0  0  0  0  0  0  0  0
   -1.6253   -7.4642   29.6760 C   0  0  0  0  0  0  0  0  0  0  0  0
   -1.0603   -7.0093   30.8160 N   0  0  0  0  0  0  0  0  0  0  0  0
    0.1879   -6.5614   30.4736 C   0  0  0  0  0  0  0  0  0  0  0  0
    0.4775   -6.9703   29.1704 C   0  0  0  0  0  0  0  0  0  0  0  0
   -0.7415   -7.6673   28.6791 C   0  0  0  0  0  0  0  0  0  0  0  0
   -1.6215   -7.8289   27.1166 C   0  0  0  0  0  0  0  0  0  0  0  0
    1.6623   -6.3248   28.4973 C   0  0  0  0  0  0  0  0  0  0  0  0
    1.8191   -4.8715   28.9850 C   0  0  0  0  0  0  0  0  0  0  0  0
    1.9927   -4.8061   30.5054 C   0  0  0  0  0  0  0  0  0  0  0  0
    0.9053   -5.5423   31.3033 C   0  0  0  0  0  0  0  0  0  0  0  0
   -4.3296  -11.5348   24.3533 H   0  0  0  0  0  0  0  0  0  0  0  0
   -5.6267  -12.3129   22.5545 H   0  0  0  0  0  0  0  0  0  0  0  0
   -4.2057  -11.6499   21.5644 H   0  0  0  0  0  0  0  0  0  0  0  0
   -7.7455   -8.0521   20.9064 H   0  0  0  0  0  0  0  0  0  0  0  0
   -7.5171   -8.4755   18.4601 H   0  0  0  0  0  0  0  0  0  0  0  0
   -6.0684  -10.3641   17.7210 H   0  0  0  0  0  0  0  0  0  0  0  0
   -4.3137  -11.5365   18.4288 H   0  0  0  0  0  0  0  0  0  0  0  0
   -3.1035   -6.7147   26.7520 H   0  0  0  0  0  0  0  0  0  0  0  0
   -2.3577   -6.2009   28.4879 H   0  0  0  0  0  0  0  0  0  0  0  0
   -1.5689   -6.7113   31.6402 H   0  0  0  0  0  0  0  0  0  0  0  0
   -0.5798   -8.0998   27.1247 H   0  0  0  0  0  0  0  0  0  0  0  0
    1.5904   -6.2821   27.4187 H   0  0  0  0  0  0  0  0  0  0  0  0
    2.5745   -6.8801   28.7295 H   0  0  0  0  0  0  0  0  0  0  0  0
    2.6887   -4.4149   28.4985 H   0  0  0  0  0  0  0  0  0  0  0  0
    0.9408   -4.2817   28.6921 H   0  0  0  0  0  0  0  0  0  0  0  0
    2.9679   -5.2338   30.7473 H   0  0  0  0  0  0  0  0  0  0  0  0
    2.0418   -3.7605   30.8320 H   0  0  0  0  0  0  0  0  0  0  0  0
    1.3399   -6.0101   32.1935 H   0  0  0  0  0  0  0  0  0  0  0  0
    0.1758   -4.8024   31.6572 H   0  0  0  0  0  0  0  0  0  0  0  0
  1  2  2  0
  2  3  1  0
  3  4  1  0
  4  5  1  0
  5  6  2  0
  6  7  1  0
  7  8  2  0
  8  9  1  0
  9 10  2  0
 10 11  1  0
  2 12  1  0
 12 13  2  0
 13 14  1  0
 14 15  2  0
 15 16  1  0
 16 17  1  0
 17 18  2  0
 18 19  1  0
 19 20  2  0
 18 21  1  0
 21 22  1  0
 22 23  1  0
 23 24  1  0
 10  5  1  0
 20 12  1  0
 19 15  1  0
 24 17  1  0
  3 25  1  0
  4 26  1  0
  4 27  1  0
  7 28  1  0
  8 29  1  0
  9 30  1  0
 11 31  1  0
 13 32  1  0
 14 33  1  0
 16 34  1  0
 20 35  1  0
 21 36  1  0
 21 37  1  0
 22 38  1  0
 22 39  1  0
 23 40  1  0
 23 41  1  0
 24 42  1  0
 24 43  1  0
M  END
>  <Energy>  (610) 
904.93191051008193

>  <compound_id>  (610) 
57342

>  <target_id>  (610) 
1

>  <reference_id>  (610) 
40

>  <inspiration_ids>  (610) 
[48, 40]

>  <energy_score>  (610) 
821.9041280949137

>  <distance_score>  (610) 
13.462441615671768

>  <path>  (610) 
/opt/xchem-fragalysis-2/maxwin/BulkDock/SCRATCH/511021/C57342-P40/C57342-P40.minimised.mol

>  <scratch_subdir>  (610) 
/opt/xchem-fragalysis-2/maxwin/BulkDock/SCRATCH/511021/C57342-P40

>  <fragmenstein_runtime>  (610) 
16.322397708892822

>  <fragmenstein_outcome>  (610) 
too moved

>  <fragmenstein_mode>  (610) 
expansion

>  <fragmenstein_error>  (610) 


$$$$
C57342-P48
     RDKit          3D

 43 46  0  0  0  0  0  0  0  0999 V2000
   -5.0760  -14.1739   24.4118 O   0  0  0  0  0  0  0  0  0  0  0  0
   -4.1552  -14.7779   24.8872 C   0  0  0  0  0  0  0  0  0  0  0  0
   -3.5453  -16.0456   24.4978 N   0  0  0  0  0  0  0  0  0  0  0  0
   -3.9334  -17.0440   23.4510 C   0  0  0  0  0  0  0  0  0  0  0  0
   -3.9678  -17.2739   21.8682 C   0  0  0  0  0  0  0  0  0  0  0  0
   -5.1496  -17.8688   21.4167 N   0  0  0  0  0  0  0  0  0  0  0  0
   -5.2573  -18.5005   20.1964 C   0  0  0  0  0  0  0  0  0  0  0  0
   -4.2020  -18.6363   19.3358 C   0  0  0  0  0  0  0  0  0  0  0  0
   -2.9957  -18.0953   19.7615 C   0  0  0  0  0  0  0  0  0  0  0  0
   -2.8761  -17.4463   21.0238 C   0  0  0  0  0  0  0  0  0  0  0  0
   -1.6419  -17.0742   21.4352 O   0  0  0  0  0  0  0  0  0  0  0  0
   -3.6179  -14.1422   26.1741 C   0  0  0  0  0  0  0  0  0  0  0  0
   -4.0203  -14.8204   27.3138 C   0  0  0  0  0  0  0  0  0  0  0  0
   -3.9047  -14.2211   28.5517 C   0  0  0  0  0  0  0  0  0  0  0  0
   -3.3079  -12.9682   28.5947 C   0  0  0  0  0  0  0  0  0  0  0  0
   -3.3340  -12.0673   29.5698 N   0  0  0  0  0  0  0  0  0  0  0  0
   -2.2027  -11.1776   29.7211 C   0  0  0  0  0  0  0  0  0  0  0  0
   -1.8288  -10.9613   28.4595 C   0  0  0  0  0  0  0  0  0  0  0  0
   -2.7989  -12.1885   27.5883 C   0  0  0  0  0  0  0  0  0  0  0  0
   -3.0085  -12.8335   26.3197 C   0  0  0  0  0  0  0  0  0  0  0  0
   -0.6210   -9.6004   28.6019 C   0  0  0  0  0  0  0  0  0  0  0  0
   -0.7111   -8.4444   29.6248 C   0  0  0  0  0  0  0  0  0  0  0  0
   -1.0920   -8.8452   30.9795 C   0  0  0  0  0  0  0  0  0  0  0  0
   -1.5830  -10.2690   30.9549 C   0  0  0  0  0  0  0  0  0  0  0  0
   -2.8444  -16.2938   25.1723 H   0  0  0  0  0  0  0  0  0  0  0  0
   -3.2794  -17.8747   23.7561 H   0  0  0  0  0  0  0  0  0  0  0  0
   -4.9266  -17.3438   23.8095 H   0  0  0  0  0  0  0  0  0  0  0  0
   -6.2402  -18.8977   19.9686 H   0  0  0  0  0  0  0  0  0  0  0  0
   -4.2969  -19.1610   18.3943 H   0  0  0  0  0  0  0  0  0  0  0  0
   -2.1225  -18.2195   19.1263 H   0  0  0  0  0  0  0  0  0  0  0  0
   -1.0216  -17.1038   20.6864 H   0  0  0  0  0  0  0  0  0  0  0  0
   -4.5378  -15.7731   27.2348 H   0  0  0  0  0  0  0  0  0  0  0  0
   -4.3118  -14.6888   29.4414 H   0  0  0  0  0  0  0  0  0  0  0  0
   -4.1898  -12.0217   30.0955 H   0  0  0  0  0  0  0  0  0  0  0  0
   -2.7590  -12.2579   25.4575 H   0  0  0  0  0  0  0  0  0  0  0  0
   -0.5392   -9.0347   27.7224 H   0  0  0  0  0  0  0  0  0  0  0  0
    0.3527   -9.9547   28.8348 H   0  0  0  0  0  0  0  0  0  0  0  0
    0.2722   -7.9671   29.7213 H   0  0  0  0  0  0  0  0  0  0  0  0
   -1.4043   -7.6647   29.2935 H   0  0  0  0  0  0  0  0  0  0  0  0
   -1.8557   -8.1567   31.3756 H   0  0  0  0  0  0  0  0  0  0  0  0
   -0.2783   -8.7040   31.6959 H   0  0  0  0  0  0  0  0  0  0  0  0
   -0.7368  -10.8609   31.0558 H   0  0  0  0  0  0  0  0  0  0  0  0
   -2.1301  -10.2023   31.8563 H   0  0  0  0  0  0  0  0  0  0  0  0
  1  2  2  0
  2  3  1  0
  3  4  1  0
  4  5  1  0
  5  6  2  0
  6  7  1  0
  7  8  2  0
  8  9  1  0
  9 10  2  0
 10 11  1  0
  2 12  1  0
 12 13  2  0
 13 14  1  0
 14 15  2  0
 15 16  1  0
 16 17  1  0
 17 18  2  0
 18 19  1  0
 19 20  2  0
 18 21  1  0
 21 22  1  0
 22 23  1  0
 23 24  1  0
 10  5  1  0
 20 12  1  0
 19 15  1  0
 24 17  1  0
  3 25  1  0
  4 26  1  0
  4 27  1  0
  7 28  1  0
  8 29  1  0
  9 30  1  0
 11 31  1  0
 13 32  1  0
 14 33  1  0
 16 34  1  0
 20 35  1  0
 21 36  1  0
 21 37  1  0
 22 38  1  0
 22 39  1  0
 23 40  1  0
 23 41  1  0
 24 42  1  0
 24 43  1  0
M  END
>  <Energy>  (611) 
274.9022794773411

>  <compound_id>  (611) 
57342

>  <target_id>  (611) 
1

>  <reference_id>  (611) 
48

>  <inspiration_ids>  (611) 
[48, 40]

>  <energy_score>  (611) 
191.87449706217444

>  <distance_score>  (611) 
12.964276646796678

>  <path>  (611) 
/opt/xchem-fragalysis-2/maxwin/BulkDock/SCRATCH/511021/C57342-P48/C57342-P48.minimised.mol

>  <scratch_subdir>  (611) 
/opt/xchem-fragalysis-2/maxwin/BulkDock/SCRATCH/511021/C57342-P48

>  <fragmenstein_runtime>  (611) 
14.738590478897095

>  <fragmenstein_outcome>  (611) 
too moved

>  <fragmenstein_mode>  (611) 
expansion

>  <fragmenstein_error>  (611) 


$$$$
C57342-P40
     RDKit          3D

 43 46  0  0  0  0  0  0  0  0999 V2000
   -3.4545   -8.7415   23.0175 O   0  0  0  0  0  0  0  0  0  0  0  0
   -3.5552   -9.3970   23.9758 C   0  0  0  0  0  0  0  0  0  0  0  0
   -4.3436  -10.9820   23.5506 N   0  0  0  0  0  0  0  0  0  0  0  0
   -4.9553  -11.5093   22.2766 C   0  0  0  0  0  0  0  0  0  0  0  0
   -5.7014  -10.6001   21.1775 C   0  0  0  0  0  0  0  0  0  0  0  0
   -6.5752   -9.6345   21.5471 N   0  0  0  0  0  0  0  0  0  0  0  0
   -7.1261   -8.8724   20.5473 C   0  0  0  0  0  0  0  0  0  0  0  0
   -6.9985   -9.1019   19.1770 C   0  0  0  0  0  0  0  0  0  0  0  0
   -6.1897  -10.1418   18.7751 C   0  0  0  0  0  0  0  0  0  0  0  0
   -5.5114  -10.8569   19.7648 C   0  0  0  0  0  0  0  0  0  0  0  0
   -4.6537  -11.8104   19.2962 O   0  0  0  0  0  0  0  0  0  0  0  0
   -3.0299   -8.5674   26.0169 C   0  0  0  0  0  0  0  0  0  0  0  0
   -3.3973   -7.6045   27.2356 C   0  0  0  0  0  0  0  0  0  0  0  0
   -2.7350   -7.1781   28.8550 C   0  0  0  0  0  0  0  0  0  0  0  0
   -1.6253   -7.4642   29.6760 C   0  0  0  0  0  0  0  0  0  0  0  0
   -1.0603   -7.0093   30.8160 N   0  0  0  0  0  0  0  0  0  0  0  0
    0.1879   -6.5614   30.4736 C   0  0  0  0  0  0  0  0  0  0  0  0
    0.4775   -6.9703   29.1704 C   0  0  0  0  0  0  0  0  0  0  0  0
   -0.7415   -7.6673   28.6791 C   0  0  0  0  0  0  0  0  0  0  0  0
   -1.6215   -7.8289   27.1166 C   0  0  0  0  0  0  0  0  0  0  0  0
    1.6623   -6.3248   28.4973 C   0  0  0  0  0  0  0  0  0  0  0  0
    1.8191   -4.8715   28.9850 C   0  0  0  0  0  0  0  0  0  0  0  0
    1.9927   -4.8061   30.5054 C   0  0  0  0  0  0  0  0  0  0  0  0
    0.9053   -5.5423   31.3033 C   0  0  0  0  0  0  0  0  0  0  0  0
   -4.3296  -11.5348   24.3533 H   0  0  0  0  0  0  0  0  0  0  0  0
   -5.6267  -12.3129   22.5545 H   0  0  0  0  0  0  0  0  0  0  0  0
   -4.2057  -11.6499   21.5644 H   0  0  0  0  0  0  0  0  0  0  0  0
   -7.7455   -8.0521   20.9064 H   0  0  0  0  0  0  0  0  0  0  0  0
   -7.5171   -8.4755   18.4601 H   0  0  0  0  0  0  0  0  0  0  0  0
   -6.0684  -10.3641   17.7210 H   0  0  0  0  0  0  0  0  0  0  0  0
   -4.3137  -11.5365   18.4288 H   0  0  0  0  0  0  0  0  0  0  0  0
   -3.1035   -6.7147   26.7520 H   0  0  0  0  0  0  0  0  0  0  0  0
   -2.3577   -6.2009   28.4879 H   0  0  0  0  0  0  0  0  0  0  0  0
   -1.5689   -6.7113   31.6402 H   0  0  0  0  0  0  0  0  0  0  0  0
   -0.5798   -8.0998   27.1247 H   0  0  0  0  0  0  0  0  0  0  0  0
    1.5904   -6.2821   27.4187 H   0  0  0  0  0  0  0  0  0  0  0  0
    2.5745   -6.8801   28.7295 H   0  0  0  0  0  0  0  0  0  0  0  0
    2.6887   -4.4149   28.4985 H   0  0  0  0  0  0  0  0  0  0  0  0
    0.9408   -4.2817   28.6921 H   0  0  0  0  0  0  0  0  0  0  0  0
    2.9679   -5.2338   30.7473 H   0  0  0  0  0  0  0  0  0  0  0  0
    2.0418   -3.7605   30.8320 H   0  0  0  0  0  0  0  0  0  0  0  0
    1.3399   -6.0101   32.1935 H   0  0  0  0  0  0  0  0  0  0  0  0
    0.1758   -4.8024   31.6572 H   0  0  0  0  0  0  0  0  0  0  0  0
  1  2  2  0
  2  3  1  0
  3  4  1  0
  4  5  1  0
  5  6  2  0
  6  7  1  0
  7  8  2  0
  8  9  1  0
  9 10  2  0
 10 11  1  0
  2 12  1  0
 12 13  2  0
 13 14  1  0
 14 15  2  0
 15 16  1  0
 16 17  1  0
 17 18  2  0
 18 19  1  0
 19 20  2  0
 18 21  1  0
 21 22  1  0
 22 23  1  0
 23 24  1  0
 10  5  1  0
 20 12  1  0
 19 15  1  0
 24 17  1  0
  3 25  1  0
  4 26  1  0
  4 27  1  0
  7 28  1  0
  8 29  1  0
  9 30  1  0
 11 31  1  0
 13 32  1  0
 14 33  1  0
 16 34  1  0
 20 35  1  0
 21 36  1  0
 21 37  1  0
 22 38  1  0
 22 39  1  0
 23 40  1  0
 23 41  1  0
 24 42  1  0
 24 43  1  0
M  END
>  <Energy>  (612) 
904.93191051008193

>  <compound_id>  (612) 
57342

>  <target_id>  (612) 
1

>  <reference_id>  (612) 
40

>  <inspiration_ids>  (612) 
[48, 40]

>  <energy_score>  (612) 
821.9041280949137

>  <distance_score>  (612) 
13.462441615671768

>  <path>  (612) 
/opt/xchem-fragalysis-2/maxwin/BulkDock/SCRATCH/511021/C57342-P40/C57342-P40.minimised.mol

>  <scratch_subdir>  (612) 
/opt/xchem-fragalysis-2/maxwin/BulkDock/SCRATCH/511021/C57342-P40

>  <fragmenstein_runtime>  (612) 
16.058746337890625

>  <fragmenstein_outcome>  (612) 
too moved

>  <fragmenstein_mode>  (612) 
expansion

>  <fragmenstein_error>  (612) 


$$$$
C57343-P48
     RDKit          3D

 45 48  0  0  0  0  0  0  0  0999 V2000
   -6.2002  -10.9877   23.2954 O   0  0  0  0  0  0  0  0  0  0  0  0
   -5.2357  -10.8155   22.5717 C   0  0  0  0  0  0  0  0  0  0  0  0
   -3.7072   -9.7375   23.4765 C   0  0  0  0  0  0  0  0  0  0  0  0
   -2.6236   -9.0900   25.0747 O   0  0  0  0  0  0  0  0  0  0  0  0
   -2.3050   -7.8843   26.5143 C   0  0  0  0  0  0  0  0  0  0  0  0
   -2.5649   -6.7521   26.2417 O   0  0  0  0  0  0  0  0  0  0  0  0
   -1.4601   -7.9705   28.3682 C   0  0  0  0  0  0  0  0  0  0  0  0
   -1.9858   -7.3576   29.4843 C   0  0  0  0  0  0  0  0  0  0  0  0
   -1.4482   -7.2434   30.8109 C   0  0  0  0  0  0  0  0  0  0  0  0
   -0.0864   -7.2412   30.8211 C   0  0  0  0  0  0  0  0  0  0  0  0
    0.7577   -6.4378   31.5562 N   0  0  0  0  0  0  0  0  0  0  0  0
    1.7023   -6.0076   30.6699 C   0  0  0  0  0  0  0  0  0  0  0  0
    1.7008   -6.8724   29.5917 C   0  0  0  0  0  0  0  0  0  0  0  0
    0.6097   -7.8730   29.7979 C   0  0  0  0  0  0  0  0  0  0  0  0
   -0.2568   -8.6942   28.8603 C   0  0  0  0  0  0  0  0  0  0  0  0
    2.7025   -6.6213   28.4976 C   0  0  0  0  0  0  0  0  0  0  0  0
    2.9404   -5.1191   28.2260 C   0  0  0  0  0  0  0  0  0  0  0  0
    2.5234   -4.1368   29.3458 C   0  0  0  0  0  0  0  0  0  0  0  0
    2.4848   -4.7484   30.7558 C   0  0  0  0  0  0  0  0  0  0  0  0
   -5.1480  -11.3223   20.8707 N   0  0  0  0  0  0  0  0  0  0  0  0
   -6.3848  -12.0515   19.7741 C   0  0  0  0  0  0  0  0  0  0  0  0
   -6.1435  -12.2725   18.4799 C   0  0  0  0  0  0  0  0  0  0  0  0
   -7.2589  -12.8559   17.6805 C   0  0  0  0  0  0  0  0  0  0  0  0
   -8.3977  -12.3289   17.4640 C   0  0  0  0  0  0  0  0  0  0  0  0
   -9.0797  -12.0802   15.2948 Cl  0  0  0  0  0  0  0  0  0  0  0  0
   -8.6168  -12.6808   18.7389 C   0  0  0  0  0  0  0  0  0  0  0  0
   -7.4553  -12.8917   19.7854 N   0  0  0  0  0  0  0  0  0  0  0  0
   -3.1593   -9.4285   22.6433 H   0  0  0  0  0  0  0  0  0  0  0  0
   -4.2573   -8.8099   23.1828 H   0  0  0  0  0  0  0  0  0  0  0  0
   -3.0326   -7.2422   29.3326 H   0  0  0  0  0  0  0  0  0  0  0  0
   -2.0050   -6.8415   31.6391 H   0  0  0  0  0  0  0  0  0  0  0  0
    0.4616   -5.9022   32.3613 H   0  0  0  0  0  0  0  0  0  0  0  0
   -0.5496   -9.6106   29.3858 H   0  0  0  0  0  0  0  0  0  0  0  0
    3.6666   -7.0187   28.8357 H   0  0  0  0  0  0  0  0  0  0  0  0
    2.4745   -7.1634   27.5774 H   0  0  0  0  0  0  0  0  0  0  0  0
    2.4215   -4.8299   27.3051 H   0  0  0  0  0  0  0  0  0  0  0  0
    4.0072   -4.9772   28.0091 H   0  0  0  0  0  0  0  0  0  0  0  0
    3.1828   -3.2613   29.3342 H   0  0  0  0  0  0  0  0  0  0  0  0
    1.5182   -3.7633   29.1043 H   0  0  0  0  0  0  0  0  0  0  0  0
    3.5017   -4.9514   31.1040 H   0  0  0  0  0  0  0  0  0  0  0  0
    2.0255   -4.0418   31.4553 H   0  0  0  0  0  0  0  0  0  0  0  0
   -4.2857  -10.9928   20.4721 H   0  0  0  0  0  0  0  0  0  0  0  0
   -5.1611  -12.1639   18.0904 H   0  0  0  0  0  0  0  0  0  0  0  0
   -7.0411  -13.7057   16.9616 H   0  0  0  0  0  0  0  0  0  0  0  0
   -9.5288  -13.0730   19.1608 H   0  0  0  0  0  0  0  0  0  0  0  0
  1  2  2  0
  2  3  1  0
  3  4  1  0
  4  5  1  0
  5  6  2  0
  5  7  1  0
  7  8  2  0
  8  9  1  0
  9 10  2  0
 10 11  1  0
 11 12  1  0
 12 13  2  0
 13 14  1  0
 14 15  2  0
 13 16  1  0
 16 17  1  0
 17 18  1  0
 18 19  1  0
  2 20  1  0
 20 21  1  0
 21 22  2  0
 22 23  1  0
 23 24  2  0
 24 25  1  0
 24 26  1  0
 26 27  2  0
 15  7  1  0
 27 21  1  0
 14 10  1  0
 19 12  1  0
  3 28  1  0
  3 29  1  0
  8 30  1  0
  9 31  1  0
 11 32  1  0
 15 33  1  0
 16 34  1  0
 16 35  1  0
 17 36  1  0
 17 37  1  0
 18 38  1  0
 18 39  1  0
 19 40  1  0
 19 41  1  0
 20 42  1  0
 22 43  1  0
 23 44  1  0
 26 45  1  0
M  END
>  <Energy>  (613) 
923.09798032105562

>  <compound_id>  (613) 
57343

>  <target_id>  (613) 
1

>  <reference_id>  (613) 
48

>  <inspiration_ids>  (613) 
[48, 40]

>  <energy_score>  (613) 
845.9781802403766

>  <distance_score>  (613) 
11.019676033907672

>  <path>  (613) 
/opt/xchem-fragalysis-2/maxwin/BulkDock/SCRATCH/511021/C57343-P48/C57343-P48.minimised.mol

>  <scratch_subdir>  (613) 
/opt/xchem-fragalysis-2/maxwin/BulkDock/SCRATCH/511021/C57343-P48

>  <fragmenstein_runtime>  (613) 
17.947461128234863

>  <fragmenstein_outcome>  (613) 
too moved

>  <fragmenstein_mode>  (613) 
expansion

>  <fragmenstein_error>  (613) 


$$$$
C57343-P40
     RDKit          3D

 45 48  0  0  0  0  0  0  0  0999 V2000
  -10.2135  -15.9345   19.6547 O   0  0  0  0  0  0  0  0  0  0  0  0
   -9.3996  -15.4035   19.0161 C   0  0  0  0  0  0  0  0  0  0  0  0
   -9.1053  -13.5303   19.7156 C   0  0  0  0  0  0  0  0  0  0  0  0
   -9.6766  -12.6568   21.3665 O   0  0  0  0  0  0  0  0  0  0  0  0
   -9.9105  -11.3477   22.6364 C   0  0  0  0  0  0  0  0  0  0  0  0
  -11.1004  -10.9753   22.6952 O   0  0  0  0  0  0  0  0  0  0  0  0
   -8.9928  -10.5756   23.8795 C   0  0  0  0  0  0  0  0  0  0  0  0
   -8.9528  -11.0220   25.2190 C   0  0  0  0  0  0  0  0  0  0  0  0
   -8.5037  -10.2737   26.3459 C   0  0  0  0  0  0  0  0  0  0  0  0
   -8.2639   -8.9169   26.1712 C   0  0  0  0  0  0  0  0  0  0  0  0
   -7.9399   -7.9344   27.0867 N   0  0  0  0  0  0  0  0  0  0  0  0
   -7.9797   -6.7163   26.4643 C   0  0  0  0  0  0  0  0  0  0  0  0
   -8.2001   -6.9247   25.1154 C   0  0  0  0  0  0  0  0  0  0  0  0
   -8.3925   -8.3246   24.9208 C   0  0  0  0  0  0  0  0  0  0  0  0
   -8.7786   -9.1514   23.8173 C   0  0  0  0  0  0  0  0  0  0  0  0
   -8.3696   -5.8020   24.1448 C   0  0  0  0  0  0  0  0  0  0  0  0
   -8.0075   -4.4425   24.7717 C   0  0  0  0  0  0  0  0  0  0  0  0
   -8.4847   -4.3087   26.2298 C   0  0  0  0  0  0  0  0  0  0  0  0
   -7.8855   -5.3946   27.1427 C   0  0  0  0  0  0  0  0  0  0  0  0
   -8.5587  -16.3055   17.7082 N   0  0  0  0  0  0  0  0  0  0  0  0
   -8.6300  -17.8958   17.2504 C   0  0  0  0  0  0  0  0  0  0  0  0
   -9.8210  -18.6913   16.1753 C   0  0  0  0  0  0  0  0  0  0  0  0
   -9.7642  -20.2185   15.6165 C   0  0  0  0  0  0  0  0  0  0  0  0
   -9.3329  -21.2165   16.4720 C   0  0  0  0  0  0  0  0  0  0  0  0
   -9.0131  -22.7065   15.1251 Cl  0  0  0  0  0  0  0  0  0  0  0  0
   -8.3945  -20.4677   17.6151 C   0  0  0  0  0  0  0  0  0  0  0  0
   -7.6972  -18.9493   17.7804 N   0  0  0  0  0  0  0  0  0  0  0  0
   -9.7212  -12.9766   19.0055 H   0  0  0  0  0  0  0  0  0  0  0  0
   -8.0962  -13.1798   19.5440 H   0  0  0  0  0  0  0  0  0  0  0  0
   -9.4078  -11.9596   25.5120 H   0  0  0  0  0  0  0  0  0  0  0  0
   -8.4839  -10.7282   27.3331 H   0  0  0  0  0  0  0  0  0  0  0  0
   -7.8132   -8.1001   28.0781 H   0  0  0  0  0  0  0  0  0  0  0  0
   -9.0329   -8.5849   22.9240 H   0  0  0  0  0  0  0  0  0  0  0  0
   -9.4176   -5.7773   23.8213 H   0  0  0  0  0  0  0  0  0  0  0  0
   -7.7555   -5.9725   23.2534 H   0  0  0  0  0  0  0  0  0  0  0  0
   -6.9209   -4.3092   24.7419 H   0  0  0  0  0  0  0  0  0  0  0  0
   -8.4365   -3.6376   24.1640 H   0  0  0  0  0  0  0  0  0  0  0  0
   -8.2200   -3.3192   26.6193 H   0  0  0  0  0  0  0  0  0  0  0  0
   -9.5802   -4.3778   26.2507 H   0  0  0  0  0  0  0  0  0  0  0  0
   -6.8373   -5.1603   27.3488 H   0  0  0  0  0  0  0  0  0  0  0  0
   -8.4170   -5.4073   28.1004 H   0  0  0  0  0  0  0  0  0  0  0  0
   -7.9738  -15.6863   17.2217 H   0  0  0  0  0  0  0  0  0  0  0  0
  -10.4915  -18.2979   15.4568 H   0  0  0  0  0  0  0  0  0  0  0  0
  -10.1205  -20.4372   14.5963 H   0  0  0  0  0  0  0  0  0  0  0  0
   -8.7556  -20.7020   18.6156 H   0  0  0  0  0  0  0  0  0  0  0  0
  1  2  2  0
  2  3  1  0
  3  4  1  0
  4  5  1  0
  5  6  2  0
  5  7  1  0
  7  8  2  0
  8  9  1  0
  9 10  2  0
 10 11  1  0
 11 12  1  0
 12 13  2  0
 13 14  1  0
 14 15  2  0
 13 16  1  0
 16 17  1  0
 17 18  1  0
 18 19  1  0
  2 20  1  0
 20 21  1  0
 21 22  2  0
 22 23  1  0
 23 24  2  0
 24 25  1  0
 24 26  1  0
 26 27  2  0
 15  7  1  0
 27 21  1  0
 14 10  1  0
 19 12  1  0
  3 28  1  0
  3 29  1  0
  8 30  1  0
  9 31  1  0
 11 32  1  0
 15 33  1  0
 16 34  1  0
 16 35  1  0
 17 36  1  0
 17 37  1  0
 18 38  1  0
 18 39  1  0
 19 40  1  0
 19 41  1  0
 20 42  1  0
 22 43  1  0
 23 44  1  0
 26 45  1  0
M  END
>  <Energy>  (614) 
666.19455701937852

>  <compound_id>  (614) 
57343

>  <target_id>  (614) 
1

>  <reference_id>  (614) 
40

>  <inspiration_ids>  (614) 
[48, 40]

>  <energy_score>  (614) 
589.0747569387033

>  <distance_score>  (614) 
11.539165363716874

>  <path>  (614) 
/opt/xchem-fragalysis-2/maxwin/BulkDock/SCRATCH/511021/C57343-P40/C57343-P40.minimised.mol

>  <scratch_subdir>  (614) 
/opt/xchem-fragalysis-2/maxwin/BulkDock/SCRATCH/511021/C57343-P40

>  <fragmenstein_runtime>  (614) 
15.646007061004639

>  <fragmenstein_outcome>  (614) 
too moved

>  <fragmenstein_mode>  (614) 
expansion

>  <fragmenstein_error>  (614) 


$$$$
C57344-P48
     RDKit          3D

 53 56  0  0  0  0  0  0  0  0999 V2000
   -7.9631  -20.1999   18.1633 C   0  0  0  0  0  0  0  0  0  0  0  0
   -6.9617  -19.3900   19.0911 C   0  0  0  0  0  0  0  0  0  0  0  0
   -5.8265  -18.8229   18.8270 C   0  0  0  0  0  0  0  0  0  0  0  0
   -6.0000  -17.5368   19.1633 C   0  0  0  0  0  0  0  0  0  0  0  0
   -6.9560  -17.0792   20.1308 C   0  0  0  0  0  0  0  0  0  0  0  0
   -7.7568  -15.7856   21.0076 N   0  0  0  0  0  0  0  0  0  0  0  0
   -8.4059  -13.9897   20.4491 C   0  0  0  0  0  0  0  0  0  0  0  0
   -8.4748  -13.4835   19.3348 O   0  0  0  0  0  0  0  0  0  0  0  0
   -8.8697  -12.5943   22.0972 C   0  0  0  0  0  0  0  0  0  0  0  0
   -7.6030  -11.2254   23.1433 N   0  0  0  0  0  0  0  0  0  0  0  0
   -6.1819  -11.5343   22.7753 C   0  0  0  0  0  0  0  0  0  0  0  0
   -7.4444  -10.6345   25.4473 S   0  0  0  0  0  0  0  0  0  0  0  0
   -6.8913  -11.8486   26.0440 O   0  0  0  0  0  0  0  0  0  0  0  0
   -8.8230  -10.1988   25.6806 O   0  0  0  0  0  0  0  0  0  0  0  0
   -6.5192   -9.3553   27.2109 C   0  0  0  0  0  0  0  0  0  0  0  0
   -6.8985   -9.3311   28.4729 C   0  0  0  0  0  0  0  0  0  0  0  0
   -5.6769   -8.2983   29.3396 C   0  0  0  0  0  0  0  0  0  0  0  0
   -3.9857   -7.6433   29.3340 C   0  0  0  0  0  0  0  0  0  0  0  0
   -2.9097   -7.5739   30.5754 N   0  0  0  0  0  0  0  0  0  0  0  0
   -1.7576   -7.0403   30.1639 C   0  0  0  0  0  0  0  0  0  0  0  0
   -1.7658   -7.6231   28.9106 C   0  0  0  0  0  0  0  0  0  0  0  0
   -3.3895   -7.5472   28.0751 C   0  0  0  0  0  0  0  0  0  0  0  0
   -4.9061   -8.3655   27.3030 C   0  0  0  0  0  0  0  0  0  0  0  0
   -0.5936   -8.6865   29.0857 C   0  0  0  0  0  0  0  0  0  0  0  0
    0.6441   -8.0888   29.8312 C   0  0  0  0  0  0  0  0  0  0  0  0
    0.5999   -6.6705   30.4018 C   0  0  0  0  0  0  0  0  0  0  0  0
   -0.7279   -6.5427   31.1014 C   0  0  0  0  0  0  0  0  0  0  0  0
   -6.9223  -18.0452   21.0382 N   0  0  0  0  0  0  0  0  0  0  0  0
   -7.1358  -19.2054   20.4464 C   0  0  0  0  0  0  0  0  0  0  0  0
   -8.7576  -19.7496   17.6198 H   0  0  0  0  0  0  0  0  0  0  0  0
   -8.7473  -20.6764   18.7706 H   0  0  0  0  0  0  0  0  0  0  0  0
   -7.4335  -20.9641   17.6355 H   0  0  0  0  0  0  0  0  0  0  0  0
   -5.0575  -19.0674   18.1354 H   0  0  0  0  0  0  0  0  0  0  0  0
   -5.2243  -16.9878   18.6290 H   0  0  0  0  0  0  0  0  0  0  0  0
   -7.8969  -15.9527   21.9816 H   0  0  0  0  0  0  0  0  0  0  0  0
   -9.5045  -11.6942   22.3733 H   0  0  0  0  0  0  0  0  0  0  0  0
   -9.8509  -12.5656   21.5751 H   0  0  0  0  0  0  0  0  0  0  0  0
   -5.7659  -12.3288   23.3897 H   0  0  0  0  0  0  0  0  0  0  0  0
   -6.1483  -11.7653   21.7227 H   0  0  0  0  0  0  0  0  0  0  0  0
   -5.5551  -10.6545   22.8104 H   0  0  0  0  0  0  0  0  0  0  0  0
   -7.8165   -9.7371   28.8675 H   0  0  0  0  0  0  0  0  0  0  0  0
   -6.1356   -7.3379   29.5879 H   0  0  0  0  0  0  0  0  0  0  0  0
   -3.2243   -7.8415   31.5074 H   0  0  0  0  0  0  0  0  0  0  0  0
   -5.3893   -7.6821   27.8061 H   0  0  0  0  0  0  0  0  0  0  0  0
   -0.9259   -9.5316   29.6975 H   0  0  0  0  0  0  0  0  0  0  0  0
   -0.2778   -9.1253   28.1660 H   0  0  0  0  0  0  0  0  0  0  0  0
    0.7184   -8.6392   30.7454 H   0  0  0  0  0  0  0  0  0  0  0  0
    1.5267   -8.2530   29.2094 H   0  0  0  0  0  0  0  0  0  0  0  0
    1.4174   -6.5118   31.1144 H   0  0  0  0  0  0  0  0  0  0  0  0
    0.7188   -5.9020   29.6339 H   0  0  0  0  0  0  0  0  0  0  0  0
   -0.7330   -7.1297   32.0283 H   0  0  0  0  0  0  0  0  0  0  0  0
   -0.9150   -5.4990   31.3739 H   0  0  0  0  0  0  0  0  0  0  0  0
   -7.8025  -19.7880   21.0275 H   0  0  0  0  0  0  0  0  0  0  0  0
  1  2  1  0
  2  3  2  0
  3  4  1  0
  4  5  2  0
  5  6  1  0
  6  7  1  0
  7  8  2  0
  7  9  1  0
  9 10  1  0
 10 11  1  0
 10 12  1  0
 12 13  2  0
 12 14  2  0
 12 15  1  0
 15 16  2  0
 16 17  1  0
 17 18  2  0
 18 19  1  0
 19 20  1  0
 20 21  2  0
 21 22  1  0
 22 23  2  0
 21 24  1  0
 24 25  1  0
 25 26  1  0
 26 27  1  0
  5 28  1  0
 28 29  2  0
 29  2  1  0
 23 15  1  0
 22 18  1  0
 27 20  1  0
  1 30  1  0
  1 31  1  0
  1 32  1  0
  3 33  1  0
  4 34  1  0
  6 35  1  0
  9 36  1  0
  9 37  1  0
 11 38  1  0
 11 39  1  0
 11 40  1  0
 16 41  1  0
 17 42  1  0
 19 43  1  0
 23 44  1  0
 24 45  1  0
 24 46  1  0
 25 47  1  0
 25 48  1  0
 26 49  1  0
 26 50  1  0
 27 51  1  0
 27 52  1  0
 29 53  1  0
M  END
>  <Energy>  (615) 
1413.3924454364201

>  <compound_id>  (615) 
57344

>  <target_id>  (615) 
1

>  <reference_id>  (615) 
48

>  <inspiration_ids>  (615) 
[48, 40]

>  <energy_score>  (615) 
1366.301838334471

>  <distance_score>  (615) 
10.364608855599759

>  <path>  (615) 
/opt/xchem-fragalysis-2/maxwin/BulkDock/SCRATCH/511021/C57344-P48/C57344-P48.minimised.mol

>  <scratch_subdir>  (615) 
/opt/xchem-fragalysis-2/maxwin/BulkDock/SCRATCH/511021/C57344-P48

>  <fragmenstein_runtime>  (615) 
20.80952262878418

>  <fragmenstein_outcome>  (615) 
too moved

>  <fragmenstein_mode>  (615) 
expansion

>  <fragmenstein_error>  (615) 


$$$$
C57344-P40
     RDKit          3D

 53 56  0  0  0  0  0  0  0  0999 V2000
  -10.0100  -22.7455   13.0719 C   0  0  0  0  0  0  0  0  0  0  0  0
   -9.8850  -21.6188   14.0249 C   0  0  0  0  0  0  0  0  0  0  0  0
  -10.4115  -20.3042   13.8985 C   0  0  0  0  0  0  0  0  0  0  0  0
  -10.4237  -18.9495   14.9298 C   0  0  0  0  0  0  0  0  0  0  0  0
   -9.8594  -19.0605   16.2431 C   0  0  0  0  0  0  0  0  0  0  0  0
   -9.8799  -17.9137   17.6114 N   0  0  0  0  0  0  0  0  0  0  0  0
   -8.8767  -16.1766   17.9368 C   0  0  0  0  0  0  0  0  0  0  0  0
   -8.0949  -16.0072   17.0786 O   0  0  0  0  0  0  0  0  0  0  0  0
   -8.9111  -14.3937   19.2895 C   0  0  0  0  0  0  0  0  0  0  0  0
   -7.3795  -13.0117   20.0952 N   0  0  0  0  0  0  0  0  0  0  0  0
   -6.7716  -12.0835   21.8673 C   0  0  0  0  0  0  0  0  0  0  0  0
   -5.7858  -11.1889   20.1233 S   0  0  0  0  0  0  0  0  0  0  0  0
   -4.5633  -11.7002   19.5385 O   0  0  0  0  0  0  0  0  0  0  0  0
   -6.4723  -10.1138   19.4084 O   0  0  0  0  0  0  0  0  0  0  0  0
   -4.7394   -9.8297   21.8479 C   0  0  0  0  0  0  0  0  0  0  0  0
   -4.3704   -8.3630   21.7218 C   0  0  0  0  0  0  0  0  0  0  0  0
   -3.2057   -7.3060   22.6432 C   0  0  0  0  0  0  0  0  0  0  0  0
   -1.9047   -7.2270   24.1572 C   0  0  0  0  0  0  0  0  0  0  0  0
   -2.6746   -7.0213   25.8116 N   0  0  0  0  0  0  0  0  0  0  0  0
   -3.1275   -7.2630   27.3173 C   0  0  0  0  0  0  0  0  0  0  0  0
   -2.4602   -7.9991   26.5647 C   0  0  0  0  0  0  0  0  0  0  0  0
   -2.6373   -9.0254   24.6883 C   0  0  0  0  0  0  0  0  0  0  0  0
   -3.7192   -9.8640   23.3175 C   0  0  0  0  0  0  0  0  0  0  0  0
   -0.8105   -8.0781   27.8552 C   0  0  0  0  0  0  0  0  0  0  0  0
   -0.2512   -7.3138   29.0937 C   0  0  0  0  0  0  0  0  0  0  0  0
   -1.4245   -7.2110   29.9011 C   0  0  0  0  0  0  0  0  0  0  0  0
   -2.5046   -7.0378   28.8348 C   0  0  0  0  0  0  0  0  0  0  0  0
   -9.4630  -20.5763   16.4310 N   0  0  0  0  0  0  0  0  0  0  0  0
   -9.4821  -21.7165   15.3177 C   0  0  0  0  0  0  0  0  0  0  0  0
   -9.2208  -23.4821   13.2401 H   0  0  0  0  0  0  0  0  0  0  0  0
   -9.8993  -22.3923   12.0466 H   0  0  0  0  0  0  0  0  0  0  0  0
  -10.9749  -23.2508   13.1639 H   0  0  0  0  0  0  0  0  0  0  0  0
  -11.2060  -20.2769   13.2138 H   0  0  0  0  0  0  0  0  0  0  0  0
  -10.9131  -18.1884   14.3463 H   0  0  0  0  0  0  0  0  0  0  0  0
  -10.6261  -17.9930   18.3251 H   0  0  0  0  0  0  0  0  0  0  0  0
   -9.7599  -13.7060   19.3104 H   0  0  0  0  0  0  0  0  0  0  0  0
   -8.9027  -15.2016   20.0478 H   0  0  0  0  0  0  0  0  0  0  0  0
   -5.8874  -12.5316   22.3311 H   0  0  0  0  0  0  0  0  0  0  0  0
   -7.6045  -12.0717   22.5808 H   0  0  0  0  0  0  0  0  0  0  0  0
   -6.7235  -10.9909   21.9511 H   0  0  0  0  0  0  0  0  0  0  0  0
   -4.8570   -7.7977   20.9154 H   0  0  0  0  0  0  0  0  0  0  0  0
   -3.8836   -6.3818   22.8245 H   0  0  0  0  0  0  0  0  0  0  0  0
   -3.2693   -6.7569   25.1421 H   0  0  0  0  0  0  0  0  0  0  0  0
   -3.7891  -10.9334   23.6304 H   0  0  0  0  0  0  0  0  0  0  0  0
   -0.7769   -9.0585   28.4344 H   0  0  0  0  0  0  0  0  0  0  0  0
    0.1513   -7.9487   27.4675 H   0  0  0  0  0  0  0  0  0  0  0  0
    0.5198   -7.9113   29.5994 H   0  0  0  0  0  0  0  0  0  0  0  0
    0.2448   -6.3498   28.9125 H   0  0  0  0  0  0  0  0  0  0  0  0
   -1.4731   -8.0414   30.6059 H   0  0  0  0  0  0  0  0  0  0  0  0
   -1.3325   -6.3582   30.5849 H   0  0  0  0  0  0  0  0  0  0  0  0
   -3.3542   -7.3133   29.3938 H   0  0  0  0  0  0  0  0  0  0  0  0
   -2.1719   -6.0671   28.5480 H   0  0  0  0  0  0  0  0  0  0  0  0
   -9.1687  -22.6824   15.6821 H   0  0  0  0  0  0  0  0  0  0  0  0
  1  2  1  0
  2  3  2  0
  3  4  1  0
  4  5  2  0
  5  6  1  0
  6  7  1  0
  7  8  2  0
  7  9  1  0
  9 10  1  0
 10 11  1  0
 10 12  1  0
 12 13  2  0
 12 14  2  0
 12 15  1  0
 15 16  2  0
 16 17  1  0
 17 18  2  0
 18 19  1  0
 19 20  1  0
 20 21  2  0
 21 22  1  0
 22 23  2  0
 21 24  1  0
 24 25  1  0
 25 26  1  0
 26 27  1  0
  5 28  1  0
 28 29  2  0
 29  2  1  0
 23 15  1  0
 22 18  1  0
 27 20  1  0
  1 30  1  0
  1 31  1  0
  1 32  1  0
  3 33  1  0
  4 34  1  0
  6 35  1  0
  9 36  1  0
  9 37  1  0
 11 38  1  0
 11 39  1  0
 11 40  1  0
 16 41  1  0
 17 42  1  0
 19 43  1  0
 23 44  1  0
 24 45  1  0
 24 46  1  0
 25 47  1  0
 25 48  1  0
 26 49  1  0
 26 50  1  0
 27 51  1  0
 27 52  1  0
 29 53  1  0
M  END
>  <Energy>  (616) 
2406.1030801692218

>  <compound_id>  (616) 
57344

>  <target_id>  (616) 
1

>  <reference_id>  (616) 
40

>  <inspiration_ids>  (616) 
[48, 40]

>  <energy_score>  (616) 
2359.012473067267

>  <distance_score>  (616) 
8.945277110930775

>  <path>  (616) 
/opt/xchem-fragalysis-2/maxwin/BulkDock/SCRATCH/511021/C57344-P40/C57344-P40.minimised.mol

>  <scratch_subdir>  (616) 
/opt/xchem-fragalysis-2/maxwin/BulkDock/SCRATCH/511021/C57344-P40

>  <fragmenstein_runtime>  (616) 
27.233792304992676

>  <fragmenstein_outcome>  (616) 
too moved

>  <fragmenstein_mode>  (616) 
expansion

>  <fragmenstein_error>  (616) 


$$$$
C57343-P48
     RDKit          3D

 45 48  0  0  0  0  0  0  0  0999 V2000
   -6.2002  -10.9877   23.2954 O   0  0  0  0  0  0  0  0  0  0  0  0
   -5.2357  -10.8155   22.5717 C   0  0  0  0  0  0  0  0  0  0  0  0
   -3.7072   -9.7375   23.4765 C   0  0  0  0  0  0  0  0  0  0  0  0
   -2.6236   -9.0900   25.0747 O   0  0  0  0  0  0  0  0  0  0  0  0
   -2.3050   -7.8843   26.5143 C   0  0  0  0  0  0  0  0  0  0  0  0
   -2.5649   -6.7521   26.2417 O   0  0  0  0  0  0  0  0  0  0  0  0
   -1.4601   -7.9705   28.3682 C   0  0  0  0  0  0  0  0  0  0  0  0
   -1.9858   -7.3576   29.4843 C   0  0  0  0  0  0  0  0  0  0  0  0
   -1.4482   -7.2434   30.8109 C   0  0  0  0  0  0  0  0  0  0  0  0
   -0.0864   -7.2412   30.8211 C   0  0  0  0  0  0  0  0  0  0  0  0
    0.7577   -6.4378   31.5562 N   0  0  0  0  0  0  0  0  0  0  0  0
    1.7023   -6.0076   30.6699 C   0  0  0  0  0  0  0  0  0  0  0  0
    1.7008   -6.8724   29.5917 C   0  0  0  0  0  0  0  0  0  0  0  0
    0.6097   -7.8730   29.7979 C   0  0  0  0  0  0  0  0  0  0  0  0
   -0.2568   -8.6942   28.8603 C   0  0  0  0  0  0  0  0  0  0  0  0
    2.7025   -6.6213   28.4976 C   0  0  0  0  0  0  0  0  0  0  0  0
    2.9404   -5.1191   28.2260 C   0  0  0  0  0  0  0  0  0  0  0  0
    2.5234   -4.1368   29.3458 C   0  0  0  0  0  0  0  0  0  0  0  0
    2.4848   -4.7484   30.7558 C   0  0  0  0  0  0  0  0  0  0  0  0
   -5.1480  -11.3223   20.8707 N   0  0  0  0  0  0  0  0  0  0  0  0
   -6.3848  -12.0515   19.7741 C   0  0  0  0  0  0  0  0  0  0  0  0
   -6.1435  -12.2725   18.4799 C   0  0  0  0  0  0  0  0  0  0  0  0
   -7.2589  -12.8559   17.6805 C   0  0  0  0  0  0  0  0  0  0  0  0
   -8.3977  -12.3289   17.4640 C   0  0  0  0  0  0  0  0  0  0  0  0
   -9.0797  -12.0802   15.2948 Cl  0  0  0  0  0  0  0  0  0  0  0  0
   -8.6168  -12.6808   18.7389 C   0  0  0  0  0  0  0  0  0  0  0  0
   -7.4553  -12.8917   19.7854 N   0  0  0  0  0  0  0  0  0  0  0  0
   -3.1593   -9.4285   22.6433 H   0  0  0  0  0  0  0  0  0  0  0  0
   -4.2573   -8.8099   23.1828 H   0  0  0  0  0  0  0  0  0  0  0  0
   -3.0326   -7.2422   29.3326 H   0  0  0  0  0  0  0  0  0  0  0  0
   -2.0050   -6.8415   31.6391 H   0  0  0  0  0  0  0  0  0  0  0  0
    0.4616   -5.9022   32.3613 H   0  0  0  0  0  0  0  0  0  0  0  0
   -0.5496   -9.6106   29.3858 H   0  0  0  0  0  0  0  0  0  0  0  0
    3.6666   -7.0187   28.8357 H   0  0  0  0  0  0  0  0  0  0  0  0
    2.4745   -7.1634   27.5774 H   0  0  0  0  0  0  0  0  0  0  0  0
    2.4215   -4.8299   27.3051 H   0  0  0  0  0  0  0  0  0  0  0  0
    4.0072   -4.9772   28.0091 H   0  0  0  0  0  0  0  0  0  0  0  0
    3.1828   -3.2613   29.3342 H   0  0  0  0  0  0  0  0  0  0  0  0
    1.5182   -3.7633   29.1043 H   0  0  0  0  0  0  0  0  0  0  0  0
    3.5017   -4.9514   31.1040 H   0  0  0  0  0  0  0  0  0  0  0  0
    2.0255   -4.0418   31.4553 H   0  0  0  0  0  0  0  0  0  0  0  0
   -4.2857  -10.9928   20.4721 H   0  0  0  0  0  0  0  0  0  0  0  0
   -5.1611  -12.1639   18.0904 H   0  0  0  0  0  0  0  0  0  0  0  0
   -7.0411  -13.7057   16.9616 H   0  0  0  0  0  0  0  0  0  0  0  0
   -9.5288  -13.0730   19.1608 H   0  0  0  0  0  0  0  0  0  0  0  0
  1  2  2  0
  2  3  1  0
  3  4  1  0
  4  5  1  0
  5  6  2  0
  5  7  1  0
  7  8  2  0
  8  9  1  0
  9 10  2  0
 10 11  1  0
 11 12  1  0
 12 13  2  0
 13 14  1  0
 14 15  2  0
 13 16  1  0
 16 17  1  0
 17 18  1  0
 18 19  1  0
  2 20  1  0
 20 21  1  0
 21 22  2  0
 22 23  1  0
 23 24  2  0
 24 25  1  0
 24 26  1  0
 26 27  2  0
 15  7  1  0
 27 21  1  0
 14 10  1  0
 19 12  1  0
  3 28  1  0
  3 29  1  0
  8 30  1  0
  9 31  1  0
 11 32  1  0
 15 33  1  0
 16 34  1  0
 16 35  1  0
 17 36  1  0
 17 37  1  0
 18 38  1  0
 18 39  1  0
 19 40  1  0
 19 41  1  0
 20 42  1  0
 22 43  1  0
 23 44  1  0
 26 45  1  0
M  END
>  <Energy>  (617) 
923.09798032105562

>  <compound_id>  (617) 
57343

>  <target_id>  (617) 
1

>  <reference_id>  (617) 
48

>  <inspiration_ids>  (617) 
[48, 40]

>  <energy_score>  (617) 
845.9781802403766

>  <distance_score>  (617) 
11.019676033907672

>  <path>  (617) 
/opt/xchem-fragalysis-2/maxwin/BulkDock/SCRATCH/511021/C57343-P48/C57343-P48.minimised.mol

>  <scratch_subdir>  (617) 
/opt/xchem-fragalysis-2/maxwin/BulkDock/SCRATCH/511021/C57343-P48

>  <fragmenstein_runtime>  (617) 
17.724849462509155

>  <fragmenstein_outcome>  (617) 
too moved

>  <fragmenstein_mode>  (617) 
expansion

>  <fragmenstein_error>  (617) 


$$$$
C57343-P40
     RDKit          3D

 45 48  0  0  0  0  0  0  0  0999 V2000
  -10.2135  -15.9345   19.6547 O   0  0  0  0  0  0  0  0  0  0  0  0
   -9.3996  -15.4035   19.0161 C   0  0  0  0  0  0  0  0  0  0  0  0
   -9.1053  -13.5303   19.7156 C   0  0  0  0  0  0  0  0  0  0  0  0
   -9.6766  -12.6568   21.3665 O   0  0  0  0  0  0  0  0  0  0  0  0
   -9.9105  -11.3477   22.6364 C   0  0  0  0  0  0  0  0  0  0  0  0
  -11.1004  -10.9753   22.6952 O   0  0  0  0  0  0  0  0  0  0  0  0
   -8.9928  -10.5756   23.8795 C   0  0  0  0  0  0  0  0  0  0  0  0
   -8.9528  -11.0220   25.2190 C   0  0  0  0  0  0  0  0  0  0  0  0
   -8.5037  -10.2737   26.3459 C   0  0  0  0  0  0  0  0  0  0  0  0
   -8.2639   -8.9169   26.1712 C   0  0  0  0  0  0  0  0  0  0  0  0
   -7.9399   -7.9344   27.0867 N   0  0  0  0  0  0  0  0  0  0  0  0
   -7.9797   -6.7163   26.4643 C   0  0  0  0  0  0  0  0  0  0  0  0
   -8.2001   -6.9247   25.1154 C   0  0  0  0  0  0  0  0  0  0  0  0
   -8.3925   -8.3246   24.9208 C   0  0  0  0  0  0  0  0  0  0  0  0
   -8.7786   -9.1514   23.8173 C   0  0  0  0  0  0  0  0  0  0  0  0
   -8.3696   -5.8020   24.1448 C   0  0  0  0  0  0  0  0  0  0  0  0
   -8.0075   -4.4425   24.7717 C   0  0  0  0  0  0  0  0  0  0  0  0
   -8.4847   -4.3087   26.2298 C   0  0  0  0  0  0  0  0  0  0  0  0
   -7.8855   -5.3946   27.1427 C   0  0  0  0  0  0  0  0  0  0  0  0
   -8.5587  -16.3055   17.7082 N   0  0  0  0  0  0  0  0  0  0  0  0
   -8.6300  -17.8958   17.2504 C   0  0  0  0  0  0  0  0  0  0  0  0
   -9.8210  -18.6913   16.1753 C   0  0  0  0  0  0  0  0  0  0  0  0
   -9.7642  -20.2185   15.6165 C   0  0  0  0  0  0  0  0  0  0  0  0
   -9.3329  -21.2165   16.4720 C   0  0  0  0  0  0  0  0  0  0  0  0
   -9.0131  -22.7065   15.1251 Cl  0  0  0  0  0  0  0  0  0  0  0  0
   -8.3945  -20.4677   17.6151 C   0  0  0  0  0  0  0  0  0  0  0  0
   -7.6972  -18.9493   17.7804 N   0  0  0  0  0  0  0  0  0  0  0  0
   -9.7212  -12.9766   19.0055 H   0  0  0  0  0  0  0  0  0  0  0  0
   -8.0962  -13.1798   19.5440 H   0  0  0  0  0  0  0  0  0  0  0  0
   -9.4078  -11.9596   25.5120 H   0  0  0  0  0  0  0  0  0  0  0  0
   -8.4839  -10.7282   27.3331 H   0  0  0  0  0  0  0  0  0  0  0  0
   -7.8132   -8.1001   28.0781 H   0  0  0  0  0  0  0  0  0  0  0  0
   -9.0329   -8.5849   22.9240 H   0  0  0  0  0  0  0  0  0  0  0  0
   -9.4176   -5.7773   23.8213 H   0  0  0  0  0  0  0  0  0  0  0  0
   -7.7555   -5.9725   23.2534 H   0  0  0  0  0  0  0  0  0  0  0  0
   -6.9209   -4.3092   24.7419 H   0  0  0  0  0  0  0  0  0  0  0  0
   -8.4365   -3.6376   24.1640 H   0  0  0  0  0  0  0  0  0  0  0  0
   -8.2200   -3.3192   26.6193 H   0  0  0  0  0  0  0  0  0  0  0  0
   -9.5802   -4.3778   26.2507 H   0  0  0  0  0  0  0  0  0  0  0  0
   -6.8373   -5.1603   27.3488 H   0  0  0  0  0  0  0  0  0  0  0  0
   -8.4170   -5.4073   28.1004 H   0  0  0  0  0  0  0  0  0  0  0  0
   -7.9738  -15.6863   17.2217 H   0  0  0  0  0  0  0  0  0  0  0  0
  -10.4915  -18.2979   15.4568 H   0  0  0  0  0  0  0  0  0  0  0  0
  -10.1205  -20.4372   14.5963 H   0  0  0  0  0  0  0  0  0  0  0  0
   -8.7556  -20.7020   18.6156 H   0  0  0  0  0  0  0  0  0  0  0  0
  1  2  2  0
  2  3  1  0
  3  4  1  0
  4  5  1  0
  5  6  2  0
  5  7  1  0
  7  8  2  0
  8  9  1  0
  9 10  2  0
 10 11  1  0
 11 12  1  0
 12 13  2  0
 13 14  1  0
 14 15  2  0
 13 16  1  0
 16 17  1  0
 17 18  1  0
 18 19  1  0
  2 20  1  0
 20 21  1  0
 21 22  2  0
 22 23  1  0
 23 24  2  0
 24 25  1  0
 24 26  1  0
 26 27  2  0
 15  7  1  0
 27 21  1  0
 14 10  1  0
 19 12  1  0
  3 28  1  0
  3 29  1  0
  8 30  1  0
  9 31  1  0
 11 32  1  0
 15 33  1  0
 16 34  1  0
 16 35  1  0
 17 36  1  0
 17 37  1  0
 18 38  1  0
 18 39  1  0
 19 40  1  0
 19 41  1  0
 20 42  1  0
 22 43  1  0
 23 44  1  0
 26 45  1  0
M  END
>  <Energy>  (618) 
666.19455701937852

>  <compound_id>  (618) 
57343

>  <target_id>  (618) 
1

>  <reference_id>  (618) 
40

>  <inspiration_ids>  (618) 
[48, 40]

>  <energy_score>  (618) 
589.0747569387033

>  <distance_score>  (618) 
11.539165363716874

>  <path>  (618) 
/opt/xchem-fragalysis-2/maxwin/BulkDock/SCRATCH/511021/C57343-P40/C57343-P40.minimised.mol

>  <scratch_subdir>  (618) 
/opt/xchem-fragalysis-2/maxwin/BulkDock/SCRATCH/511021/C57343-P40

>  <fragmenstein_runtime>  (618) 
16.210755348205566

>  <fragmenstein_outcome>  (618) 
too moved

>  <fragmenstein_mode>  (618) 
expansion

>  <fragmenstein_error>  (618) 


$$$$
C57348-P48
     RDKit          3D

 42 45  0  0  0  0  0  0  0  0999 V2000
   -3.2048  -16.3355   26.1743 O   0  0  0  0  0  0  0  0  0  0  0  0
   -3.5809  -15.5572   25.3369 C   0  0  0  0  0  0  0  0  0  0  0  0
   -3.7151  -15.7144   23.8707 N   0  0  0  0  0  0  0  0  0  0  0  0
   -3.3288  -16.8585   22.9602 C   0  0  0  0  0  0  0  0  0  0  0  0
   -3.8123  -17.3319   21.5236 C   0  0  0  0  0  0  0  0  0  0  0  0
   -2.8265  -17.6466   20.5632 C   0  0  0  0  0  0  0  0  0  0  0  0
   -3.1280  -18.3494   19.3815 C   0  0  0  0  0  0  0  0  0  0  0  0
   -4.4280  -18.7501   19.1511 C   0  0  0  0  0  0  0  0  0  0  0  0
   -5.4407  -18.4779   19.9853 N   0  0  0  0  0  0  0  0  0  0  0  0
   -5.1090  -17.8113   21.1330 C   0  0  0  0  0  0  0  0  0  0  0  0
   -3.8474  -14.1310   26.0026 C   0  0  0  0  0  0  0  0  0  0  0  0
   -4.8932  -14.2041   26.9124 C   0  0  0  0  0  0  0  0  0  0  0  0
   -4.8095  -13.5420   28.1391 C   0  0  0  0  0  0  0  0  0  0  0  0
   -3.7208  -12.6964   28.3804 C   0  0  0  0  0  0  0  0  0  0  0  0
   -3.1386  -12.3946   29.5570 N   0  0  0  0  0  0  0  0  0  0  0  0
   -2.2549  -11.2572   29.6439 C   0  0  0  0  0  0  0  0  0  0  0  0
   -1.8678  -11.0018   28.3890 C   0  0  0  0  0  0  0  0  0  0  0  0
   -2.8235  -12.2043   27.4685 C   0  0  0  0  0  0  0  0  0  0  0  0
   -2.8281  -13.1011   26.2981 C   0  0  0  0  0  0  0  0  0  0  0  0
   -0.6294   -9.6449   28.5727 C   0  0  0  0  0  0  0  0  0  0  0  0
   -0.7097   -8.4965   29.6049 C   0  0  0  0  0  0  0  0  0  0  0  0
   -1.0873   -8.9210   30.9508 C   0  0  0  0  0  0  0  0  0  0  0  0
   -1.5579  -10.3557   30.8994 C   0  0  0  0  0  0  0  0  0  0  0  0
   -3.9824  -14.8334   23.4689 H   0  0  0  0  0  0  0  0  0  0  0  0
   -3.3533  -17.7409   23.6088 H   0  0  0  0  0  0  0  0  0  0  0  0
   -2.2553  -16.6592   22.8351 H   0  0  0  0  0  0  0  0  0  0  0  0
   -1.7832  -17.3934   20.7497 H   0  0  0  0  0  0  0  0  0  0  0  0
   -2.3450  -18.6083   18.6767 H   0  0  0  0  0  0  0  0  0  0  0  0
   -4.6778  -19.3291   18.2777 H   0  0  0  0  0  0  0  0  0  0  0  0
   -5.9730  -17.7345   21.7909 H   0  0  0  0  0  0  0  0  0  0  0  0
   -5.6498  -14.9793   26.8023 H   0  0  0  0  0  0  0  0  0  0  0  0
   -5.4927  -13.8082   28.9406 H   0  0  0  0  0  0  0  0  0  0  0  0
   -3.2316  -13.1018   30.2690 H   0  0  0  0  0  0  0  0  0  0  0  0
   -1.9052  -13.1397   25.7574 H   0  0  0  0  0  0  0  0  0  0  0  0
    0.3459   -9.9918   28.8001 H   0  0  0  0  0  0  0  0  0  0  0  0
   -0.5485   -9.0536   27.7093 H   0  0  0  0  0  0  0  0  0  0  0  0
    0.2782   -8.0285   29.7028 H   0  0  0  0  0  0  0  0  0  0  0  0
   -1.3946   -7.7038   29.2873 H   0  0  0  0  0  0  0  0  0  0  0  0
   -1.8538   -8.2447   31.3644 H   0  0  0  0  0  0  0  0  0  0  0  0
   -0.2790   -8.7740   31.6711 H   0  0  0  0  0  0  0  0  0  0  0  0
   -2.0952  -10.2831   31.8064 H   0  0  0  0  0  0  0  0  0  0  0  0
   -0.7116  -10.9494   30.9801 H   0  0  0  0  0  0  0  0  0  0  0  0
  1  2  2  0
  2  3  1  0
  3  4  1  0
  4  5  1  0
  5  6  2  0
  6  7  1  0
  7  8  2  0
  8  9  1  0
  9 10  2  0
  2 11  1  0
 11 12  2  0
 12 13  1  0
 13 14  2  0
 14 15  1  0
 15 16  1  0
 16 17  2  0
 17 18  1  0
 18 19  2  0
 17 20  1  0
 20 21  1  0
 21 22  1  0
 22 23  1  0
 10  5  1  0
 19 11  1  0
 18 14  1  0
 23 16  1  0
  3 24  1  0
  4 25  1  0
  4 26  1  0
  6 27  1  0
  7 28  1  0
  8 29  1  0
 10 30  1  0
 12 31  1  0
 13 32  1  0
 15 33  1  0
 19 34  1  0
 20 35  1  0
 20 36  1  0
 21 37  1  0
 21 38  1  0
 22 39  1  0
 22 40  1  0
 23 41  1  0
 23 42  1  0
M  END
>  <Energy>  (619) 
265.87368569657724

>  <compound_id>  (619) 
57348

>  <target_id>  (619) 
1

>  <reference_id>  (619) 
48

>  <inspiration_ids>  (619) 
[48, 40]

>  <energy_score>  (619) 
223.79360319656155

>  <distance_score>  (619) 
12.565434771999767

>  <path>  (619) 
/opt/xchem-fragalysis-2/maxwin/BulkDock/SCRATCH/511021/C57348-P48/C57348-P48.minimised.mol

>  <scratch_subdir>  (619) 
/opt/xchem-fragalysis-2/maxwin/BulkDock/SCRATCH/511021/C57348-P48

>  <fragmenstein_runtime>  (619) 
13.858756303787231

>  <fragmenstein_outcome>  (619) 
too moved

>  <fragmenstein_mode>  (619) 
expansion

>  <fragmenstein_error>  (619) 


$$$$
C57348-P40
     RDKit          3D

 42 45  0  0  0  0  0  0  0  0999 V2000
   -3.6932  -14.5551   25.7817 O   0  0  0  0  0  0  0  0  0  0  0  0
   -2.3337  -14.1797   24.9945 C   0  0  0  0  0  0  0  0  0  0  0  0
   -2.4117  -14.8104   24.0761 N   0  0  0  0  0  0  0  0  0  0  0  0
   -3.3000  -15.9536   23.3732 C   0  0  0  0  0  0  0  0  0  0  0  0
   -2.9836  -16.5928   21.9473 C   0  0  0  0  0  0  0  0  0  0  0  0
   -1.7255  -16.6978   21.3562 C   0  0  0  0  0  0  0  0  0  0  0  0
   -1.5433  -17.3776   20.1239 C   0  0  0  0  0  0  0  0  0  0  0  0
   -2.6175  -17.9762   19.4897 C   0  0  0  0  0  0  0  0  0  0  0  0
   -3.8425  -17.9269   20.0100 N   0  0  0  0  0  0  0  0  0  0  0  0
   -3.9721  -17.2514   21.1935 C   0  0  0  0  0  0  0  0  0  0  0  0
   -1.0374  -13.0596   25.7491 C   0  0  0  0  0  0  0  0  0  0  0  0
   -2.2945  -12.2916   26.5765 C   0  0  0  0  0  0  0  0  0  0  0  0
   -1.7120  -11.1153   27.5813 C   0  0  0  0  0  0  0  0  0  0  0  0
   -0.0206  -10.4222   27.9104 C   0  0  0  0  0  0  0  0  0  0  0  0
    0.5382   -8.9570   28.6159 N   0  0  0  0  0  0  0  0  0  0  0  0
    1.6047   -8.3227   27.6912 C   0  0  0  0  0  0  0  0  0  0  0  0
    2.0805   -9.0569   26.4295 C   0  0  0  0  0  0  0  0  0  0  0  0
    1.2653  -10.4993   26.2035 C   0  0  0  0  0  0  0  0  0  0  0  0
    0.7286  -12.1436   25.1182 C   0  0  0  0  0  0  0  0  0  0  0  0
    3.0980   -8.4719   25.4669 C   0  0  0  0  0  0  0  0  0  0  0  0
    3.4769   -7.0241   25.8309 C   0  0  0  0  0  0  0  0  0  0  0  0
    3.5385   -6.7257   27.3354 C   0  0  0  0  0  0  0  0  0  0  0  0
    2.1852   -6.9318   28.0370 C   0  0  0  0  0  0  0  0  0  0  0  0
   -2.1390  -15.1237   23.1793 H   0  0  0  0  0  0  0  0  0  0  0  0
   -3.3280  -16.7748   24.1008 H   0  0  0  0  0  0  0  0  0  0  0  0
   -4.2773  -15.4869   23.3660 H   0  0  0  0  0  0  0  0  0  0  0  0
   -0.8434  -16.2726   21.8333 H   0  0  0  0  0  0  0  0  0  0  0  0
   -0.5515  -17.4413   19.6849 H   0  0  0  0  0  0  0  0  0  0  0  0
   -2.5119  -18.5173   18.5558 H   0  0  0  0  0  0  0  0  0  0  0  0
   -4.9965  -17.3067   21.5303 H   0  0  0  0  0  0  0  0  0  0  0  0
   -3.2677  -12.7247   26.7784 H   0  0  0  0  0  0  0  0  0  0  0  0
   -2.0251  -10.5578   26.6506 H   0  0  0  0  0  0  0  0  0  0  0  0
   -0.0061   -8.5036   29.3413 H   0  0  0  0  0  0  0  0  0  0  0  0
    1.1613  -12.2498   24.1282 H   0  0  0  0  0  0  0  0  0  0  0  0
    3.9986   -9.0912   25.4411 H   0  0  0  0  0  0  0  0  0  0  0  0
    2.6956   -8.4910   24.4502 H   0  0  0  0  0  0  0  0  0  0  0  0
    4.4380   -6.7782   25.3646 H   0  0  0  0  0  0  0  0  0  0  0  0
    2.7375   -6.3454   25.3947 H   0  0  0  0  0  0  0  0  0  0  0  0
    3.8527   -5.6853   27.4815 H   0  0  0  0  0  0  0  0  0  0  0  0
    4.3110   -7.3478   27.7995 H   0  0  0  0  0  0  0  0  0  0  0  0
    1.4927   -6.1455   27.7267 H   0  0  0  0  0  0  0  0  0  0  0  0
    2.3038   -6.8103   29.1135 H   0  0  0  0  0  0  0  0  0  0  0  0
  1  2  2  0
  2  3  1  0
  3  4  1  0
  4  5  1  0
  5  6  2  0
  6  7  1  0
  7  8  2  0
  8  9  1  0
  9 10  2  0
  2 11  1  0
 11 12  2  0
 12 13  1  0
 13 14  2  0
 14 15  1  0
 15 16  1  0
 16 17  2  0
 17 18  1  0
 18 19  2  0
 17 20  1  0
 20 21  1  0
 21 22  1  0
 22 23  1  0
 10  5  1  0
 19 11  1  0
 18 14  1  0
 23 16  1  0
  3 24  1  0
  4 25  1  0
  4 26  1  0
  6 27  1  0
  7 28  1  0
  8 29  1  0
 10 30  1  0
 12 31  1  0
 13 32  1  0
 15 33  1  0
 19 34  1  0
 20 35  1  0
 20 36  1  0
 21 37  1  0
 21 38  1  0
 22 39  1  0
 22 40  1  0
 23 41  1  0
 23 42  1  0
M  END
>  <Energy>  (620) 
1064.2670143441267

>  <compound_id>  (620) 
57348

>  <target_id>  (620) 
1

>  <reference_id>  (620) 
40

>  <inspiration_ids>  (620) 
[48, 40]

>  <energy_score>  (620) 
1022.1869318441145

>  <distance_score>  (620) 
12.397674422594054

>  <path>  (620) 
/opt/xchem-fragalysis-2/maxwin/BulkDock/SCRATCH/511021/C57348-P40/C57348-P40.minimised.mol

>  <scratch_subdir>  (620) 
/opt/xchem-fragalysis-2/maxwin/BulkDock/SCRATCH/511021/C57348-P40

>  <fragmenstein_runtime>  (620) 
9.943675518035889

>  <fragmenstein_outcome>  (620) 
too moved

>  <fragmenstein_mode>  (620) 
expansion

>  <fragmenstein_error>  (620) 


$$$$
C51706-P48
     RDKit          3D

 54 58  0  0  0  0  0  0  0  0999 V2000
   -8.9221   -9.9682   18.7991 O   0  0  0  0  0  0  0  0  0  0  0  0
   -8.0017   -9.7892   18.0502 C   0  0  0  0  0  0  0  0  0  0  0  0
   -7.8516  -10.1116   16.6466 N   0  0  0  0  0  0  0  0  0  0  0  0
   -8.8112  -10.6673   15.6774 C   0  0  0  0  0  0  0  0  0  0  0  0
   -8.4515  -11.6650   14.5855 C   0  0  0  0  0  0  0  0  0  0  0  0
   -9.4605  -12.3709   13.8982 C   0  0  0  0  0  0  0  0  0  0  0  0
   -9.1752  -13.0819   12.7259 C   0  0  0  0  0  0  0  0  0  0  0  0
   -7.8806  -13.0665   12.2255 C   0  0  0  0  0  0  0  0  0  0  0  0
   -7.6100  -13.5146   10.9424 N   0  0  0  0  0  0  0  0  0  0  0  0
   -8.2996  -12.7949    9.8644 C   0  0  0  0  0  0  0  0  0  0  0  0
   -7.3064  -12.7768    8.6988 C   0  0  0  0  0  0  0  0  0  0  0  0
   -6.2767  -13.8344    9.0638 C   0  0  0  0  0  0  0  0  0  0  0  0
   -6.2052  -13.7036   10.5800 C   0  0  0  0  0  0  0  0  0  0  0  0
   -6.8869  -12.5041   12.9333 N   0  0  0  0  0  0  0  0  0  0  0  0
   -7.1871  -11.8133   14.0635 C   0  0  0  0  0  0  0  0  0  0  0  0
   -6.8851   -8.9868   18.7563 C   0  0  0  0  0  0  0  0  0  0  0  0
   -5.5808   -8.7816   18.3009 C   0  0  0  0  0  0  0  0  0  0  0  0
   -4.7056   -7.8544   18.9254 C   0  0  0  0  0  0  0  0  0  0  0  0
   -5.1816   -7.1230   20.0221 C   0  0  0  0  0  0  0  0  0  0  0  0
   -4.6798   -6.0083   20.6550 N   0  0  0  0  0  0  0  0  0  0  0  0
   -5.5162   -5.6211   21.6643 C   0  0  0  0  0  0  0  0  0  0  0  0
   -6.5829   -6.4917   21.6936 C   0  0  0  0  0  0  0  0  0  0  0  0
   -6.4158   -7.3886   20.6029 C   0  0  0  0  0  0  0  0  0  0  0  0
   -7.2531   -8.3310   19.9689 C   0  0  0  0  0  0  0  0  0  0  0  0
   -7.7573   -6.3031   22.5939 C   0  0  0  0  0  0  0  0  0  0  0  0
   -7.4729   -5.2509   23.6793 C   0  0  0  0  0  0  0  0  0  0  0  0
   -6.7089   -4.0287   23.1370 C   0  0  0  0  0  0  0  0  0  0  0  0
   -5.3566   -4.4038   22.5007 C   0  0  0  0  0  0  0  0  0  0  0  0
   -6.9733   -9.7411   16.3160 H   0  0  0  0  0  0  0  0  0  0  0  0
   -9.6389  -11.0650   16.2739 H   0  0  0  0  0  0  0  0  0  0  0  0
   -9.2121   -9.7839   15.1636 H   0  0  0  0  0  0  0  0  0  0  0  0
  -10.4929  -12.3084   14.2392 H   0  0  0  0  0  0  0  0  0  0  0  0
   -9.9673  -13.5669   12.1725 H   0  0  0  0  0  0  0  0  0  0  0  0
   -9.2152  -13.3260    9.5879 H   0  0  0  0  0  0  0  0  0  0  0  0
   -8.5684  -11.7661   10.1353 H   0  0  0  0  0  0  0  0  0  0  0  0
   -7.7895  -12.9724    7.7371 H   0  0  0  0  0  0  0  0  0  0  0  0
   -6.8255  -11.7930    8.6388 H   0  0  0  0  0  0  0  0  0  0  0  0
   -5.3100  -13.6703    8.5800 H   0  0  0  0  0  0  0  0  0  0  0  0
   -6.6427  -14.8289    8.7819 H   0  0  0  0  0  0  0  0  0  0  0  0
   -5.7842  -14.6023   11.0422 H   0  0  0  0  0  0  0  0  0  0  0  0
   -5.5853  -12.8359   10.8389 H   0  0  0  0  0  0  0  0  0  0  0  0
   -6.3319  -11.3197   14.5155 H   0  0  0  0  0  0  0  0  0  0  0  0
   -5.2181   -9.2999   17.4172 H   0  0  0  0  0  0  0  0  0  0  0  0
   -3.7286   -7.6539   18.4950 H   0  0  0  0  0  0  0  0  0  0  0  0
   -3.8693   -5.4962   20.3401 H   0  0  0  0  0  0  0  0  0  0  0  0
   -8.2585   -8.4481   20.3684 H   0  0  0  0  0  0  0  0  0  0  0  0
   -8.0341   -7.2531   23.0645 H   0  0  0  0  0  0  0  0  0  0  0  0
   -8.6124   -5.9735   21.9909 H   0  0  0  0  0  0  0  0  0  0  0  0
   -8.4183   -4.9289   24.1307 H   0  0  0  0  0  0  0  0  0  0  0  0
   -6.8865   -5.7134   24.4791 H   0  0  0  0  0  0  0  0  0  0  0  0
   -6.5438   -3.3035   23.9419 H   0  0  0  0  0  0  0  0  0  0  0  0
   -7.3354   -3.5308   22.3853 H   0  0  0  0  0  0  0  0  0  0  0  0
   -4.9963   -3.5612   21.9009 H   0  0  0  0  0  0  0  0  0  0  0  0
   -4.6130   -4.5984   23.2779 H   0  0  0  0  0  0  0  0  0  0  0  0
  1  2  2  0
  2  3  1  0
  3  4  1  0
  4  5  1  0
  5  6  2  0
  6  7  1  0
  7  8  2  0
  8  9  1  0
  9 10  1  0
 10 11  1  0
 11 12  1  0
 12 13  1  0
  8 14  1  0
 14 15  2  0
  2 16  1  0
 16 17  2  0
 17 18  1  0
 18 19  2  0
 19 20  1  0
 20 21  1  0
 21 22  2  0
 22 23  1  0
 23 24  2  0
 22 25  1  0
 25 26  1  0
 26 27  1  0
 27 28  1  0
 15  5  1  0
 24 16  1  0
 13  9  1  0
 23 19  1  0
 28 21  1  0
  3 29  1  0
  4 30  1  0
  4 31  1  0
  6 32  1  0
  7 33  1  0
 10 34  1  0
 10 35  1  0
 11 36  1  0
 11 37  1  0
 12 38  1  0
 12 39  1  0
 13 40  1  0
 13 41  1  0
 15 42  1  0
 17 43  1  0
 18 44  1  0
 20 45  1  0
 24 46  1  0
 25 47  1  0
 25 48  1  0
 26 49  1  0
 26 50  1  0
 27 51  1  0
 27 52  1  0
 28 53  1  0
 28 54  1  0
M  END
>  <Energy>  (621) 
21.068822428532595

>  <compound_id>  (621) 
51706

>  <target_id>  (621) 
1

>  <reference_id>  (621) 
48

>  <inspiration_ids>  (621) 
[48, 40]

>  <energy_score>  (621) 
-19.009993984637845

>  <distance_score>  (621) 
13.728213718731485

>  <path>  (621) 
/opt/xchem-fragalysis-2/maxwin/BulkDock/SCRATCH/511021/C51706-P48/C51706-P48.minimised.mol

>  <scratch_subdir>  (621) 
/opt/xchem-fragalysis-2/maxwin/BulkDock/SCRATCH/511021/C51706-P48

>  <fragmenstein_runtime>  (621) 
28.985870599746704

>  <fragmenstein_outcome>  (621) 
too moved

>  <fragmenstein_mode>  (621) 
expansion

>  <fragmenstein_error>  (621) 


$$$$
C51706-P40
     RDKit          3D

 54 58  0  0  0  0  0  0  0  0999 V2000
   -4.0687  -17.6752   21.5985 O   0  0  0  0  0  0  0  0  0  0  0  0
   -3.8800  -17.1904   20.5298 C   0  0  0  0  0  0  0  0  0  0  0  0
   -4.9282  -17.7621   19.1240 N   0  0  0  0  0  0  0  0  0  0  0  0
   -6.4238  -18.9547   19.0533 C   0  0  0  0  0  0  0  0  0  0  0  0
   -7.7853  -19.7899   17.9597 C   0  0  0  0  0  0  0  0  0  0  0  0
   -8.4515  -20.9277   17.8153 C   0  0  0  0  0  0  0  0  0  0  0  0
   -9.2814  -21.7772   16.4459 C   0  0  0  0  0  0  0  0  0  0  0  0
   -9.5528  -21.4417   15.2566 C   0  0  0  0  0  0  0  0  0  0  0  0
   -9.5922  -22.3037   14.1884 N   0  0  0  0  0  0  0  0  0  0  0  0
  -10.0009  -21.9136   12.8841 C   0  0  0  0  0  0  0  0  0  0  0  0
  -10.5552  -23.1957   12.2583 C   0  0  0  0  0  0  0  0  0  0  0  0
   -9.6964  -24.2645   12.8812 C   0  0  0  0  0  0  0  0  0  0  0  0
   -9.7394  -23.7597   14.3081 C   0  0  0  0  0  0  0  0  0  0  0  0
   -9.6907  -20.2203   15.7898 N   0  0  0  0  0  0  0  0  0  0  0  0
   -9.1023  -19.6265   17.3777 C   0  0  0  0  0  0  0  0  0  0  0  0
   -2.5411  -15.7573   20.7008 C   0  0  0  0  0  0  0  0  0  0  0  0
   -1.9213  -16.1526   21.8761 C   0  0  0  0  0  0  0  0  0  0  0  0
   -1.0230  -15.3790   22.7250 C   0  0  0  0  0  0  0  0  0  0  0  0
   -0.6307  -13.9854   22.7489 C   0  0  0  0  0  0  0  0  0  0  0  0
    0.1104  -13.1690   23.5877 N   0  0  0  0  0  0  0  0  0  0  0  0
    0.4896  -11.8528   23.4762 C   0  0  0  0  0  0  0  0  0  0  0  0
    0.6948  -11.9764   22.1659 C   0  0  0  0  0  0  0  0  0  0  0  0
   -0.5753  -13.3082   21.5850 C   0  0  0  0  0  0  0  0  0  0  0  0
   -1.6348  -14.2706   20.5123 C   0  0  0  0  0  0  0  0  0  0  0  0
    2.5790  -12.2546   22.8033 C   0  0  0  0  0  0  0  0  0  0  0  0
    3.5504  -11.2835   23.4657 C   0  0  0  0  0  0  0  0  0  0  0  0
    2.7093  -10.2806   24.0195 C   0  0  0  0  0  0  0  0  0  0  0  0
    1.5636  -11.2002   24.4899 C   0  0  0  0  0  0  0  0  0  0  0  0
   -4.5918  -17.3237   18.2781 H   0  0  0  0  0  0  0  0  0  0  0  0
   -6.8686  -18.8163   20.0425 H   0  0  0  0  0  0  0  0  0  0  0  0
   -5.7696  -19.8011   19.1881 H   0  0  0  0  0  0  0  0  0  0  0  0
   -8.9009  -21.2354   18.7738 H   0  0  0  0  0  0  0  0  0  0  0  0
   -9.5268  -22.8327   16.4638 H   0  0  0  0  0  0  0  0  0  0  0  0
   -9.1515  -21.5639   12.2938 H   0  0  0  0  0  0  0  0  0  0  0  0
  -10.7353  -21.1398   13.0094 H   0  0  0  0  0  0  0  0  0  0  0  0
  -10.4995  -23.2004   11.1807 H   0  0  0  0  0  0  0  0  0  0  0  0
  -11.6046  -23.3474   12.5415 H   0  0  0  0  0  0  0  0  0  0  0  0
  -10.1152  -25.2682   12.7690 H   0  0  0  0  0  0  0  0  0  0  0  0
   -8.6893  -24.2474   12.4581 H   0  0  0  0  0  0  0  0  0  0  0  0
   -9.0772  -24.2139   15.0312 H   0  0  0  0  0  0  0  0  0  0  0  0
  -10.7212  -24.0738   14.6327 H   0  0  0  0  0  0  0  0  0  0  0  0
   -9.5352  -18.6112   17.3353 H   0  0  0  0  0  0  0  0  0  0  0  0
   -2.0485  -17.1805   22.2275 H   0  0  0  0  0  0  0  0  0  0  0  0
   -0.5151  -16.0767   23.3819 H   0  0  0  0  0  0  0  0  0  0  0  0
    0.7840  -13.6298   24.1242 H   0  0  0  0  0  0  0  0  0  0  0  0
   -1.7019  -13.7568   19.5525 H   0  0  0  0  0  0  0  0  0  0  0  0
    3.2144  -12.6812   22.0276 H   0  0  0  0  0  0  0  0  0  0  0  0
    2.6302  -13.0424   23.5435 H   0  0  0  0  0  0  0  0  0  0  0  0
    4.1113  -11.7918   24.2531 H   0  0  0  0  0  0  0  0  0  0  0  0
    4.3477  -10.8862   22.8685 H   0  0  0  0  0  0  0  0  0  0  0  0
    3.2042   -9.7341   24.8310 H   0  0  0  0  0  0  0  0  0  0  0  0
    2.5058   -9.5274   23.2592 H   0  0  0  0  0  0  0  0  0  0  0  0
    1.8605  -12.1120   24.9875 H   0  0  0  0  0  0  0  0  0  0  0  0
    1.2973  -10.5003   25.2260 H   0  0  0  0  0  0  0  0  0  0  0  0
  1  2  2  0
  2  3  1  0
  3  4  1  0
  4  5  1  0
  5  6  2  0
  6  7  1  0
  7  8  2  0
  8  9  1  0
  9 10  1  0
 10 11  1  0
 11 12  1  0
 12 13  1  0
  8 14  1  0
 14 15  2  0
  2 16  1  0
 16 17  2  0
 17 18  1  0
 18 19  2  0
 19 20  1  0
 20 21  1  0
 21 22  2  0
 22 23  1  0
 23 24  2  0
 22 25  1  0
 25 26  1  0
 26 27  1  0
 27 28  1  0
 15  5  1  0
 24 16  1  0
 13  9  1  0
 23 19  1  0
 28 21  1  0
  3 29  1  0
  4 30  1  0
  4 31  1  0
  6 32  1  0
  7 33  1  0
 10 34  1  0
 10 35  1  0
 11 36  1  0
 11 37  1  0
 12 38  1  0
 12 39  1  0
 13 40  1  0
 13 41  1  0
 15 42  1  0
 17 43  1  0
 18 44  1  0
 20 45  1  0
 24 46  1  0
 25 47  1  0
 25 48  1  0
 26 49  1  0
 26 50  1  0
 27 51  1  0
 27 52  1  0
 28 53  1  0
 28 54  1  0
M  END
>  <Energy>  (622) 
1064.7193793146384

>  <compound_id>  (622) 
51706

>  <target_id>  (622) 
1

>  <reference_id>  (622) 
40

>  <inspiration_ids>  (622) 
[48, 40]

>  <energy_score>  (622) 
1024.6405629014662

>  <distance_score>  (622) 
11.775534172042683

>  <path>  (622) 
/opt/xchem-fragalysis-2/maxwin/BulkDock/SCRATCH/511021/C51706-P40/C51706-P40.minimised.mol

>  <scratch_subdir>  (622) 
/opt/xchem-fragalysis-2/maxwin/BulkDock/SCRATCH/511021/C51706-P40

>  <fragmenstein_runtime>  (622) 
17.22571039199829

>  <fragmenstein_outcome>  (622) 
too moved

>  <fragmenstein_mode>  (622) 
expansion

>  <fragmenstein_error>  (622) 


$$$$
C54518-P48
     RDKit          3D

 49 53  0  0  0  0  0  0  0  0999 V2000
   -8.8196  -17.5250   24.7607 O   0  0  0  0  0  0  0  0  0  0  0  0
   -7.6800  -17.3819   24.4176 C   0  0  0  0  0  0  0  0  0  0  0  0
   -7.0226  -17.7232   23.1869 N   0  0  0  0  0  0  0  0  0  0  0  0
   -7.5479  -18.2521   21.9401 C   0  0  0  0  0  0  0  0  0  0  0  0
   -6.7742  -18.3100   20.5889 C   0  0  0  0  0  0  0  0  0  0  0  0
   -5.8827  -19.2080   20.8551 C   0  0  0  0  0  0  0  0  0  0  0  0
   -5.0738  -19.6983   19.9567 C   0  0  0  0  0  0  0  0  0  0  0  0
   -4.9790  -18.9684   18.8181 C   0  0  0  0  0  0  0  0  0  0  0  0
   -5.6452  -17.8666   18.7345 N   0  0  0  0  0  0  0  0  0  0  0  0
   -6.8338  -18.0857   19.1827 C   0  0  0  0  0  0  0  0  0  0  0  0
   -7.5461  -18.9690   18.0771 N   0  0  0  0  0  0  0  0  0  0  0  0
   -9.1996  -19.4274   17.5672 C   0  0  0  0  0  0  0  0  0  0  0  0
   -9.0691  -20.7388   17.2746 C   0  0  0  0  0  0  0  0  0  0  0  0
   -8.6536  -20.6475   18.4596 C   0  0  0  0  0  0  0  0  0  0  0  0
   -7.4175  -20.2499   18.1842 N   0  0  0  0  0  0  0  0  0  0  0  0
   -6.7987  -16.6127   25.4132 C   0  0  0  0  0  0  0  0  0  0  0  0
   -5.5192  -16.9814   25.8220 C   0  0  0  0  0  0  0  0  0  0  0  0
   -4.7201  -16.1754   26.6700 C   0  0  0  0  0  0  0  0  0  0  0  0
   -5.3011  -15.0179   27.1941 C   0  0  0  0  0  0  0  0  0  0  0  0
   -4.8687  -14.1566   28.1854 N   0  0  0  0  0  0  0  0  0  0  0  0
   -5.9629  -13.4648   28.6286 C   0  0  0  0  0  0  0  0  0  0  0  0
   -6.9297  -13.5089   27.6499 C   0  0  0  0  0  0  0  0  0  0  0  0
   -6.5822  -14.6065   26.8213 C   0  0  0  0  0  0  0  0  0  0  0  0
   -7.3081  -15.3854   25.8902 C   0  0  0  0  0  0  0  0  0  0  0  0
   -8.2199  -12.7680   27.7523 C   0  0  0  0  0  0  0  0  0  0  0  0
   -8.1978  -11.7689   28.9222 C   0  0  0  0  0  0  0  0  0  0  0  0
   -7.5722  -12.3800   30.1873 C   0  0  0  0  0  0  0  0  0  0  0  0
   -6.1288  -12.8712   29.9725 C   0  0  0  0  0  0  0  0  0  0  0  0
   -6.0669  -17.3776   23.2152 H   0  0  0  0  0  0  0  0  0  0  0  0
   -8.3001  -17.5339   21.8009 H   0  0  0  0  0  0  0  0  0  0  0  0
   -7.8758  -19.2322   22.2693 H   0  0  0  0  0  0  0  0  0  0  0  0
   -5.9763  -19.5705   21.8228 H   0  0  0  0  0  0  0  0  0  0  0  0
   -4.5775  -20.5830   20.3234 H   0  0  0  0  0  0  0  0  0  0  0  0
   -4.3762  -19.1693   17.9587 H   0  0  0  0  0  0  0  0  0  0  0  0
   -9.5968  -18.4916   17.2654 H   0  0  0  0  0  0  0  0  0  0  0  0
   -9.6068  -21.3595   16.5643 H   0  0  0  0  0  0  0  0  0  0  0  0
   -9.0320  -20.8169   19.4795 H   0  0  0  0  0  0  0  0  0  0  0  0
   -5.1461  -17.9469   25.5102 H   0  0  0  0  0  0  0  0  0  0  0  0
   -3.7362  -16.5085   26.9844 H   0  0  0  0  0  0  0  0  0  0  0  0
   -3.9974  -14.2558   28.6873 H   0  0  0  0  0  0  0  0  0  0  0  0
   -8.3133  -15.0792   25.6141 H   0  0  0  0  0  0  0  0  0  0  0  0
   -8.4272  -12.2372   26.8165 H   0  0  0  0  0  0  0  0  0  0  0  0
   -9.0330  -13.4872   27.9105 H   0  0  0  0  0  0  0  0  0  0  0  0
   -7.6297  -10.8772   28.6337 H   0  0  0  0  0  0  0  0  0  0  0  0
   -9.2197  -11.4350   29.1351 H   0  0  0  0  0  0  0  0  0  0  0  0
   -8.1936  -13.2274   30.5062 H   0  0  0  0  0  0  0  0  0  0  0  0
   -7.5915  -11.6525   31.0069 H   0  0  0  0  0  0  0  0  0  0  0  0
   -5.8968  -13.6191   30.7396 H   0  0  0  0  0  0  0  0  0  0  0  0
   -5.4283  -12.0586   30.0997 H   0  0  0  0  0  0  0  0  0  0  0  0
  1  2  2  0
  2  3  1  0
  3  4  1  0
  4  5  1  0
  5  6  2  0
  6  7  1  0
  7  8  2  0
  8  9  1  0
  9 10  2  0
 10 11  1  0
 11 12  1  0
 12 13  2  0
 13 14  1  0
 14 15  2  0
  2 16  1  0
 16 17  2  0
 17 18  1  0
 18 19  2  0
 19 20  1  0
 20 21  1  0
 21 22  2  0
 22 23  1  0
 23 24  2  0
 22 25  1  0
 25 26  1  0
 26 27  1  0
 27 28  1  0
 10  5  1  0
 15 11  1  0
 24 16  1  0
 23 19  1  0
 28 21  1  0
  3 29  1  0
  4 30  1  0
  4 31  1  0
  6 32  1  0
  7 33  1  0
  8 34  1  0
 12 35  1  0
 13 36  1  0
 14 37  1  0
 17 38  1  0
 18 39  1  0
 20 40  1  0
 24 41  1  0
 25 42  1  0
 25 43  1  0
 26 44  1  0
 26 45  1  0
 27 46  1  0
 27 47  1  0
 28 48  1  0
 28 49  1  0
M  END
>  <Energy>  (623) 
399.08181947553823

>  <compound_id>  (623) 
54518

>  <target_id>  (623) 
1

>  <reference_id>  (623) 
48

>  <inspiration_ids>  (623) 
[48, 40]

>  <energy_score>  (623) 
277.2116498219358

>  <distance_score>  (623) 
13.72805164194436

>  <path>  (623) 
/opt/xchem-fragalysis-2/maxwin/BulkDock/SCRATCH/511021/C54518-P48/C54518-P48.minimised.mol

>  <scratch_subdir>  (623) 
/opt/xchem-fragalysis-2/maxwin/BulkDock/SCRATCH/511021/C54518-P48

>  <fragmenstein_runtime>  (623) 
22.7298641204834

>  <fragmenstein_outcome>  (623) 
too moved

>  <fragmenstein_mode>  (623) 
expansion

>  <fragmenstein_error>  (623) 


$$$$
C54518-P40
     RDKit          3D

 49 53  0  0  0  0  0  0  0  0999 V2000
   -7.8114  -17.5428   17.5821 O   0  0  0  0  0  0  0  0  0  0  0  0
   -7.1826  -18.5035   17.9922 C   0  0  0  0  0  0  0  0  0  0  0  0
   -7.5275  -20.0614   17.9300 N   0  0  0  0  0  0  0  0  0  0  0  0
   -8.9388  -20.9812   17.1040 C   0  0  0  0  0  0  0  0  0  0  0  0
   -9.1289  -22.3057   15.5885 C   0  0  0  0  0  0  0  0  0  0  0  0
   -9.7007  -23.6516   15.5939 C   0  0  0  0  0  0  0  0  0  0  0  0
  -10.3958  -24.2403   14.4262 C   0  0  0  0  0  0  0  0  0  0  0  0
  -10.5586  -23.4171   13.3295 C   0  0  0  0  0  0  0  0  0  0  0  0
   -9.8467  -22.2783   13.2984 N   0  0  0  0  0  0  0  0  0  0  0  0
   -8.8114  -22.2932   14.2131 C   0  0  0  0  0  0  0  0  0  0  0  0
   -7.9509  -23.5329   13.6886 N   0  0  0  0  0  0  0  0  0  0  0  0
   -7.5098  -24.6960   14.3600 C   0  0  0  0  0  0  0  0  0  0  0  0
   -7.0711  -25.6056   13.4312 C   0  0  0  0  0  0  0  0  0  0  0  0
   -7.2682  -24.9663   12.2086 C   0  0  0  0  0  0  0  0  0  0  0  0
   -7.8014  -23.7489   12.3321 N   0  0  0  0  0  0  0  0  0  0  0  0
   -5.7444  -18.1157   18.8871 C   0  0  0  0  0  0  0  0  0  0  0  0
   -6.0141  -18.1925   20.2220 C   0  0  0  0  0  0  0  0  0  0  0  0
   -5.2521  -17.4641   21.1472 C   0  0  0  0  0  0  0  0  0  0  0  0
   -3.9365  -16.6693   20.9714 C   0  0  0  0  0  0  0  0  0  0  0  0
   -2.9098  -16.1966   21.8173 N   0  0  0  0  0  0  0  0  0  0  0  0
   -1.7690  -15.7813   21.1908 C   0  0  0  0  0  0  0  0  0  0  0  0
   -2.1587  -15.5149   19.8878 C   0  0  0  0  0  0  0  0  0  0  0  0
   -3.5015  -16.3890   19.6888 C   0  0  0  0  0  0  0  0  0  0  0  0
   -4.5087  -17.2541   18.5716 C   0  0  0  0  0  0  0  0  0  0  0  0
   -1.2307  -14.5835   19.1414 C   0  0  0  0  0  0  0  0  0  0  0  0
    0.2995  -14.8336   19.3939 C   0  0  0  0  0  0  0  0  0  0  0  0
    0.6820  -15.6637   20.6939 C   0  0  0  0  0  0  0  0  0  0  0  0
   -0.4056  -15.6170   21.8022 C   0  0  0  0  0  0  0  0  0  0  0  0
   -6.7498  -20.5875   18.2813 H   0  0  0  0  0  0  0  0  0  0  0  0
   -7.8978  -21.2230   17.0868 H   0  0  0  0  0  0  0  0  0  0  0  0
   -9.4163  -20.1600   16.6308 H   0  0  0  0  0  0  0  0  0  0  0  0
   -9.7873  -24.3137   16.4367 H   0  0  0  0  0  0  0  0  0  0  0  0
  -10.8614  -25.2170   14.4865 H   0  0  0  0  0  0  0  0  0  0  0  0
  -11.1965  -23.6384   12.4867 H   0  0  0  0  0  0  0  0  0  0  0  0
   -7.5490  -24.7582   15.4327 H   0  0  0  0  0  0  0  0  0  0  0  0
   -6.6574  -26.5848   13.6228 H   0  0  0  0  0  0  0  0  0  0  0  0
   -7.0464  -25.3365   11.2149 H   0  0  0  0  0  0  0  0  0  0  0  0
   -6.8538  -18.7631   20.6001 H   0  0  0  0  0  0  0  0  0  0  0  0
   -5.5611  -17.7176   22.1687 H   0  0  0  0  0  0  0  0  0  0  0  0
   -3.1048  -15.8775   22.7465 H   0  0  0  0  0  0  0  0  0  0  0  0
   -4.1563  -17.1336   17.5471 H   0  0  0  0  0  0  0  0  0  0  0  0
   -1.4753  -14.4359   18.0926 H   0  0  0  0  0  0  0  0  0  0  0  0
   -1.4241  -13.5853   19.5660 H   0  0  0  0  0  0  0  0  0  0  0  0
    0.7351  -15.3397   18.5218 H   0  0  0  0  0  0  0  0  0  0  0  0
    0.7860  -13.8536   19.3844 H   0  0  0  0  0  0  0  0  0  0  0  0
    0.9804  -16.6847   20.4588 H   0  0  0  0  0  0  0  0  0  0  0  0
    1.7008  -15.5251   21.0547 H   0  0  0  0  0  0  0  0  0  0  0  0
   -0.2188  -16.4352   22.5077 H   0  0  0  0  0  0  0  0  0  0  0  0
   -0.3389  -14.7030   22.3882 H   0  0  0  0  0  0  0  0  0  0  0  0
  1  2  2  0
  2  3  1  0
  3  4  1  0
  4  5  1  0
  5  6  2  0
  6  7  1  0
  7  8  2  0
  8  9  1  0
  9 10  2  0
 10 11  1  0
 11 12  1  0
 12 13  2  0
 13 14  1  0
 14 15  2  0
  2 16  1  0
 16 17  2  0
 17 18  1  0
 18 19  2  0
 19 20  1  0
 20 21  1  0
 21 22  2  0
 22 23  1  0
 23 24  2  0
 22 25  1  0
 25 26  1  0
 26 27  1  0
 27 28  1  0
 10  5  1  0
 15 11  1  0
 24 16  1  0
 23 19  1  0
 28 21  1  0
  3 29  1  0
  4 30  1  0
  4 31  1  0
  6 32  1  0
  7 33  1  0
  8 34  1  0
 12 35  1  0
 13 36  1  0
 14 37  1  0
 17 38  1  0
 18 39  1  0
 20 40  1  0
 24 41  1  0
 25 42  1  0
 25 43  1  0
 26 44  1  0
 26 45  1  0
 27 46  1  0
 27 47  1  0
 28 48  1  0
 28 49  1  0
M  END
>  <Energy>  (624) 
559.16874365451497

>  <compound_id>  (624) 
54518

>  <target_id>  (624) 
1

>  <reference_id>  (624) 
40

>  <inspiration_ids>  (624) 
[48, 40]

>  <energy_score>  (624) 
437.2985740009076

>  <distance_score>  (624) 
13.994180452958357

>  <path>  (624) 
/opt/xchem-fragalysis-2/maxwin/BulkDock/SCRATCH/511021/C54518-P40/C54518-P40.minimised.mol

>  <scratch_subdir>  (624) 
/opt/xchem-fragalysis-2/maxwin/BulkDock/SCRATCH/511021/C54518-P40

>  <fragmenstein_runtime>  (624) 
24.596421003341675

>  <fragmenstein_outcome>  (624) 
too moved

>  <fragmenstein_mode>  (624) 
expansion

>  <fragmenstein_error>  (624) 


$$$$
C57353-P48
     RDKit          3D

 48 52  0  0  0  0  0  0  0  0999 V2000
   -0.4435  -13.1574   14.3075 O   0  0  0  0  0  0  0  0  0  0  0  0
   -1.3713  -13.6831   14.8539 C   0  0  0  0  0  0  0  0  0  0  0  0
   -1.9212  -13.4888   16.1836 N   0  0  0  0  0  0  0  0  0  0  0  0
   -1.4543  -12.6578   17.3132 C   0  0  0  0  0  0  0  0  0  0  0  0
   -2.0712  -11.2825   17.6194 C   0  0  0  0  0  0  0  0  0  0  0  0
   -1.5238  -10.1460   17.0056 C   0  0  0  0  0  0  0  0  0  0  0  0
   -1.9024   -8.8353   17.3450 C   0  0  0  0  0  0  0  0  0  0  0  0
   -2.9015   -8.6697   18.3037 C   0  0  0  0  0  0  0  0  0  0  0  0
   -3.5091   -7.5156   18.7445 N   0  0  0  0  0  0  0  0  0  0  0  0
   -4.4320   -7.8122   19.6995 C   0  0  0  0  0  0  0  0  0  0  0  0
   -4.4738   -9.1849   19.8470 C   0  0  0  0  0  0  0  0  0  0  0  0
   -3.5020   -9.7491   18.9529 C   0  0  0  0  0  0  0  0  0  0  0  0
   -3.0607  -11.0651   18.6126 C   0  0  0  0  0  0  0  0  0  0  0  0
   -5.4435   -9.8337   20.7771 C   0  0  0  0  0  0  0  0  0  0  0  0
   -6.5800   -8.8634   21.1640 C   0  0  0  0  0  0  0  0  0  0  0  0
   -6.0513   -7.4666   21.5326 C   0  0  0  0  0  0  0  0  0  0  0  0
   -5.3134   -6.8107   20.3571 C   0  0  0  0  0  0  0  0  0  0  0  0
   -1.9965  -14.8062   14.0367 C   0  0  0  0  0  0  0  0  0  0  0  0
   -2.0074  -16.1522   14.4346 C   0  0  0  0  0  0  0  0  0  0  0  0
   -2.5974  -17.1436   13.6144 C   0  0  0  0  0  0  0  0  0  0  0  0
   -3.2111  -16.7666   12.4209 C   0  0  0  0  0  0  0  0  0  0  0  0
   -3.8306  -17.7187   11.5759 N   0  0  0  0  0  0  0  0  0  0  0  0
   -3.8846  -19.0822   11.6835 C   0  0  0  0  0  0  0  0  0  0  0  0
   -4.6076  -19.5918   10.7100 N   0  0  0  0  0  0  0  0  0  0  0  0
   -5.0142  -18.5524    9.9110 N   0  0  0  0  0  0  0  0  0  0  0  0
   -4.5292  -17.4446   10.4275 C   0  0  0  0  0  0  0  0  0  0  0  0
   -3.2224  -15.4730   12.0098 N   0  0  0  0  0  0  0  0  0  0  0  0
   -2.5820  -14.5453   12.7948 C   0  0  0  0  0  0  0  0  0  0  0  0
   -2.7594  -14.0455   16.2791 H   0  0  0  0  0  0  0  0  0  0  0  0
   -1.5580  -13.2840   18.2064 H   0  0  0  0  0  0  0  0  0  0  0  0
   -0.3754  -12.5203   17.1685 H   0  0  0  0  0  0  0  0  0  0  0  0
   -0.7459  -10.2797   16.2518 H   0  0  0  0  0  0  0  0  0  0  0  0
   -1.4546   -7.9879   16.8356 H   0  0  0  0  0  0  0  0  0  0  0  0
   -3.3052   -6.5909   18.3909 H   0  0  0  0  0  0  0  0  0  0  0  0
   -3.4911  -11.9039   19.1458 H   0  0  0  0  0  0  0  0  0  0  0  0
   -4.9343  -10.1373   21.6962 H   0  0  0  0  0  0  0  0  0  0  0  0
   -5.8569  -10.7347   20.3154 H   0  0  0  0  0  0  0  0  0  0  0  0
   -7.1427   -9.2789   22.0073 H   0  0  0  0  0  0  0  0  0  0  0  0
   -7.2791   -8.7637   20.3239 H   0  0  0  0  0  0  0  0  0  0  0  0
   -6.8785   -6.8232   21.8522 H   0  0  0  0  0  0  0  0  0  0  0  0
   -5.3681   -7.5574   22.3845 H   0  0  0  0  0  0  0  0  0  0  0  0
   -6.0454   -6.4473   19.6257 H   0  0  0  0  0  0  0  0  0  0  0  0
   -4.7414   -5.9457   20.7072 H   0  0  0  0  0  0  0  0  0  0  0  0
   -1.5310  -16.4441   15.3690 H   0  0  0  0  0  0  0  0  0  0  0  0
   -2.5370  -18.1746   13.9420 H   0  0  0  0  0  0  0  0  0  0  0  0
   -3.3906  -19.6548   12.4515 H   0  0  0  0  0  0  0  0  0  0  0  0
   -4.6589  -16.4449   10.0367 H   0  0  0  0  0  0  0  0  0  0  0  0
   -2.5855  -13.5331   12.3944 H   0  0  0  0  0  0  0  0  0  0  0  0
  1  2  2  0
  2  3  1  0
  3  4  1  0
  4  5  1  0
  5  6  2  0
  6  7  1  0
  7  8  2  0
  8  9  1  0
  9 10  1  0
 10 11  2  0
 11 12  1  0
 12 13  2  0
 11 14  1  0
 14 15  1  0
 15 16  1  0
 16 17  1  0
  2 18  1  0
 18 19  2  0
 19 20  1  0
 20 21  2  0
 21 22  1  0
 22 23  1  0
 23 24  2  0
 24 25  1  0
 25 26  2  0
 21 27  1  0
 27 28  2  0
 13  5  1  0
 28 18  1  0
 12  8  1  0
 26 22  1  0
 17 10  1  0
  3 29  1  0
  4 30  1  0
  4 31  1  0
  6 32  1  0
  7 33  1  0
  9 34  1  0
 13 35  1  0
 14 36  1  0
 14 37  1  0
 15 38  1  0
 15 39  1  0
 16 40  1  0
 16 41  1  0
 17 42  1  0
 17 43  1  0
 19 44  1  0
 20 45  1  0
 23 46  1  0
 26 47  1  0
 28 48  1  0
M  END
>  <Energy>  (625) 
61.547738030115283

>  <compound_id>  (625) 
57353

>  <target_id>  (625) 
1

>  <reference_id>  (625) 
48

>  <inspiration_ids>  (625) 
[48, 40]

>  <energy_score>  (625) 
-16.74660468329489

>  <distance_score>  (625) 
13.813094301510395

>  <path>  (625) 
/opt/xchem-fragalysis-2/maxwin/BulkDock/SCRATCH/511021/C57353-P48/C57353-P48.minimised.mol

>  <scratch_subdir>  (625) 
/opt/xchem-fragalysis-2/maxwin/BulkDock/SCRATCH/511021/C57353-P48

>  <fragmenstein_runtime>  (625) 
22.88140034675598

>  <fragmenstein_outcome>  (625) 
too moved

>  <fragmenstein_mode>  (625) 
expansion

>  <fragmenstein_error>  (625) 


$$$$
C57353-P40
     RDKit          3D

 48 52  0  0  0  0  0  0  0  0999 V2000
   -4.2168  -17.5498   20.8690 O   0  0  0  0  0  0  0  0  0  0  0  0
   -5.1123  -17.8993   21.5645 C   0  0  0  0  0  0  0  0  0  0  0  0
   -5.1701  -17.4443   23.2999 N   0  0  0  0  0  0  0  0  0  0  0  0
   -4.0666  -16.3247   24.3222 C   0  0  0  0  0  0  0  0  0  0  0  0
   -4.1384  -14.9485   25.6379 C   0  0  0  0  0  0  0  0  0  0  0  0
   -4.8497  -15.1560   26.8219 C   0  0  0  0  0  0  0  0  0  0  0  0
   -4.7287  -14.3027   28.0726 C   0  0  0  0  0  0  0  0  0  0  0  0
   -3.8536  -13.1597   28.3375 C   0  0  0  0  0  0  0  0  0  0  0  0
   -3.6690  -12.3291   29.4849 N   0  0  0  0  0  0  0  0  0  0  0  0
   -2.4586  -11.4557   29.6021 C   0  0  0  0  0  0  0  0  0  0  0  0
   -2.1878  -11.3868   28.2836 C   0  0  0  0  0  0  0  0  0  0  0  0
   -3.0881  -12.6325   27.3197 C   0  0  0  0  0  0  0  0  0  0  0  0
   -3.2123  -13.6241   25.9411 C   0  0  0  0  0  0  0  0  0  0  0  0
   -0.8356  -10.1423   28.6620 C   0  0  0  0  0  0  0  0  0  0  0  0
   -0.5989   -8.6854   29.1101 C   0  0  0  0  0  0  0  0  0  0  0  0
   -0.8825   -8.7531   30.5559 C   0  0  0  0  0  0  0  0  0  0  0  0
   -1.5433  -10.1716   30.8179 C   0  0  0  0  0  0  0  0  0  0  0  0
   -6.4108  -18.7940   20.5121 C   0  0  0  0  0  0  0  0  0  0  0  0
   -6.3298  -19.1060   19.1061 C   0  0  0  0  0  0  0  0  0  0  0  0
   -7.4472  -20.0116   18.0174 C   0  0  0  0  0  0  0  0  0  0  0  0
   -8.7012  -20.5916   17.8913 C   0  0  0  0  0  0  0  0  0  0  0  0
   -9.3110  -21.5904   16.4201 N   0  0  0  0  0  0  0  0  0  0  0  0
   -9.2936  -23.0562   15.7415 C   0  0  0  0  0  0  0  0  0  0  0  0
   -9.4130  -23.1434   14.4446 N   0  0  0  0  0  0  0  0  0  0  0  0
   -9.6635  -21.9334   14.0280 N   0  0  0  0  0  0  0  0  0  0  0  0
   -9.6634  -21.1455   15.0787 C   0  0  0  0  0  0  0  0  0  0  0  0
   -8.8219  -20.4066   19.3646 N   0  0  0  0  0  0  0  0  0  0  0  0
   -7.6354  -19.5116   20.4563 C   0  0  0  0  0  0  0  0  0  0  0  0
   -5.9563  -17.9031   23.7275 H   0  0  0  0  0  0  0  0  0  0  0  0
   -3.4961  -15.8265   23.5293 H   0  0  0  0  0  0  0  0  0  0  0  0
   -3.4293  -17.0645   24.8205 H   0  0  0  0  0  0  0  0  0  0  0  0
   -5.5139  -16.0182   26.8909 H   0  0  0  0  0  0  0  0  0  0  0  0
   -5.3574  -14.6335   28.9053 H   0  0  0  0  0  0  0  0  0  0  0  0
   -4.5074  -12.1620   30.0153 H   0  0  0  0  0  0  0  0  0  0  0  0
   -2.5028  -13.3491   25.1581 H   0  0  0  0  0  0  0  0  0  0  0  0
   -0.1961  -10.5303   29.4500 H   0  0  0  0  0  0  0  0  0  0  0  0
   -0.1754  -10.4468   28.0205 H   0  0  0  0  0  0  0  0  0  0  0  0
   -1.1620   -7.8783   28.6523 H   0  0  0  0  0  0  0  0  0  0  0  0
    0.4510   -8.4055   28.9686 H   0  0  0  0  0  0  0  0  0  0  0  0
   -0.0209   -8.5432   31.1875 H   0  0  0  0  0  0  0  0  0  0  0  0
   -1.5475   -7.9252   30.8576 H   0  0  0  0  0  0  0  0  0  0  0  0
   -0.8271  -10.8752   31.1875 H   0  0  0  0  0  0  0  0  0  0  0  0
   -2.1940   -9.7875   31.6303 H   0  0  0  0  0  0  0  0  0  0  0  0
   -5.3445  -18.9344   18.6498 H   0  0  0  0  0  0  0  0  0  0  0  0
   -6.8812  -20.8882   17.5992 H   0  0  0  0  0  0  0  0  0  0  0  0
   -9.2305  -23.9767   16.2905 H   0  0  0  0  0  0  0  0  0  0  0  0
   -9.9469  -20.1232   14.9989 H   0  0  0  0  0  0  0  0  0  0  0  0
   -7.8687  -19.6960   21.5162 H   0  0  0  0  0  0  0  0  0  0  0  0
  1  2  2  0
  2  3  1  0
  3  4  1  0
  4  5  1  0
  5  6  2  0
  6  7  1  0
  7  8  2  0
  8  9  1  0
  9 10  1  0
 10 11  2  0
 11 12  1  0
 12 13  2  0
 11 14  1  0
 14 15  1  0
 15 16  1  0
 16 17  1  0
  2 18  1  0
 18 19  2  0
 19 20  1  0
 20 21  2  0
 21 22  1  0
 22 23  1  0
 23 24  2  0
 24 25  1  0
 25 26  2  0
 21 27  1  0
 27 28  2  0
 13  5  1  0
 28 18  1  0
 12  8  1  0
 26 22  1  0
 17 10  1  0
  3 29  1  0
  4 30  1  0
  4 31  1  0
  6 32  1  0
  7 33  1  0
  9 34  1  0
 13 35  1  0
 14 36  1  0
 14 37  1  0
 15 38  1  0
 15 39  1  0
 16 40  1  0
 16 41  1  0
 17 42  1  0
 17 43  1  0
 19 44  1  0
 20 45  1  0
 23 46  1  0
 26 47  1  0
 28 48  1  0
M  END
>  <Energy>  (626) 
1006.245719318285

>  <compound_id>  (626) 
57353

>  <target_id>  (626) 
1

>  <reference_id>  (626) 
40

>  <inspiration_ids>  (626) 
[48, 40]

>  <energy_score>  (626) 
927.9513766048703

>  <distance_score>  (626) 
11.401489239516119

>  <path>  (626) 
/opt/xchem-fragalysis-2/maxwin/BulkDock/SCRATCH/511021/C57353-P40/C57353-P40.minimised.mol

>  <scratch_subdir>  (626) 
/opt/xchem-fragalysis-2/maxwin/BulkDock/SCRATCH/511021/C57353-P40

>  <fragmenstein_runtime>  (626) 
11.813817501068115

>  <fragmenstein_outcome>  (626) 
too moved

>  <fragmenstein_mode>  (626) 
expansion

>  <fragmenstein_error>  (626) 


$$$$
C57354-P48
     RDKit          3D

 47 51  0  0  0  0  0  0  0  0999 V2000
   -5.7881  -12.3787   19.0739 O   0  0  0  0  0  0  0  0  0  0  0  0
   -6.8228  -11.9992   18.6151 C   0  0  0  0  0  0  0  0  0  0  0  0
   -8.1627  -12.6687   18.5634 N   0  0  0  0  0  0  0  0  0  0  0  0
   -8.7180  -14.1796   19.2565 C   0  0  0  0  0  0  0  0  0  0  0  0
   -8.4172  -16.0075   18.5013 C   0  0  0  0  0  0  0  0  0  0  0  0
   -7.4524  -17.2645   18.8752 N   0  0  0  0  0  0  0  0  0  0  0  0
   -7.5153  -18.3288   17.8671 C   0  0  0  0  0  0  0  0  0  0  0  0
   -7.8427  -20.2344   17.8304 C   0  0  0  0  0  0  0  0  0  0  0  0
   -9.0812  -20.5294   17.3542 C   0  0  0  0  0  0  0  0  0  0  0  0
   -9.7019  -21.4598   15.9405 C   0  0  0  0  0  0  0  0  0  0  0  0
   -9.2852  -22.4875   15.1515 C   0  0  0  0  0  0  0  0  0  0  0  0
   -8.0559  -22.4684   15.6224 C   0  0  0  0  0  0  0  0  0  0  0  0
   -7.1945  -21.3808   16.9013 N   0  0  0  0  0  0  0  0  0  0  0  0
   -8.0466  -17.4869   16.9180 N   0  0  0  0  0  0  0  0  0  0  0  0
   -8.1913  -16.1968   17.1746 O   0  0  0  0  0  0  0  0  0  0  0  0
   -6.6663  -10.5279   18.1189 C   0  0  0  0  0  0  0  0  0  0  0  0
   -5.2818  -10.2679   17.8806 C   0  0  0  0  0  0  0  0  0  0  0  0
   -4.5351   -9.2397   18.5033 C   0  0  0  0  0  0  0  0  0  0  0  0
   -5.2238   -8.3848   19.3543 C   0  0  0  0  0  0  0  0  0  0  0  0
   -4.7538   -7.4056   20.2023 N   0  0  0  0  0  0  0  0  0  0  0  0
   -5.8044   -6.7655   20.7893 C   0  0  0  0  0  0  0  0  0  0  0  0
   -6.9717   -7.3363   20.3154 C   0  0  0  0  0  0  0  0  0  0  0  0
   -6.6159   -8.4258   19.4527 C   0  0  0  0  0  0  0  0  0  0  0  0
   -7.3346   -9.4704   18.7611 C   0  0  0  0  0  0  0  0  0  0  0  0
   -8.3153   -6.8376   20.7362 C   0  0  0  0  0  0  0  0  0  0  0  0
   -8.2165   -5.4316   21.3593 C   0  0  0  0  0  0  0  0  0  0  0  0
   -7.0620   -5.3339   22.3736 C   0  0  0  0  0  0  0  0  0  0  0  0
   -5.6939   -5.6160   21.7271 C   0  0  0  0  0  0  0  0  0  0  0  0
   -8.8397  -12.0277   18.1762 H   0  0  0  0  0  0  0  0  0  0  0  0
   -8.4474  -14.0653   20.2628 H   0  0  0  0  0  0  0  0  0  0  0  0
   -9.7930  -13.9799   19.3778 H   0  0  0  0  0  0  0  0  0  0  0  0
   -9.5502  -19.5684   17.4480 H   0  0  0  0  0  0  0  0  0  0  0  0
  -10.2063  -20.7647   15.2548 H   0  0  0  0  0  0  0  0  0  0  0  0
   -9.7302  -23.0057   14.3385 H   0  0  0  0  0  0  0  0  0  0  0  0
   -7.4583  -23.4104   15.4798 H   0  0  0  0  0  0  0  0  0  0  0  0
   -4.6977  -11.0450   17.3773 H   0  0  0  0  0  0  0  0  0  0  0  0
   -3.4564   -9.2059   18.3956 H   0  0  0  0  0  0  0  0  0  0  0  0
   -3.7782   -7.1944   20.3420 H   0  0  0  0  0  0  0  0  0  0  0  0
   -8.4137   -9.5108   18.8360 H   0  0  0  0  0  0  0  0  0  0  0  0
   -8.7364   -7.5226   21.4803 H   0  0  0  0  0  0  0  0  0  0  0  0
   -9.0005   -6.8148   19.8818 H   0  0  0  0  0  0  0  0  0  0  0  0
   -9.1649   -5.1832   21.8488 H   0  0  0  0  0  0  0  0  0  0  0  0
   -8.0596   -4.6888   20.5667 H   0  0  0  0  0  0  0  0  0  0  0  0
   -7.0495   -4.3397   22.8343 H   0  0  0  0  0  0  0  0  0  0  0  0
   -7.2382   -6.0567   23.1812 H   0  0  0  0  0  0  0  0  0  0  0  0
   -5.3618   -4.7311   21.1715 H   0  0  0  0  0  0  0  0  0  0  0  0
   -4.9564   -5.8161   22.5108 H   0  0  0  0  0  0  0  0  0  0  0  0
  1  2  2  0
  2  3  1  0
  3  4  1  0
  4  5  1  0
  5  6  2  0
  6  7  1  0
  7  8  1  0
  8  9  2  0
  9 10  1  0
 10 11  2  0
 11 12  1  0
 12 13  2  0
  7 14  2  0
 14 15  1  0
  2 16  1  0
 16 17  2  0
 17 18  1  0
 18 19  2  0
 19 20  1  0
 20 21  1  0
 21 22  2  0
 22 23  1  0
 23 24  2  0
 22 25  1  0
 25 26  1  0
 26 27  1  0
 27 28  1  0
 15  5  1  0
 24 16  1  0
 13  8  1  0
 23 19  1  0
 28 21  1  0
  3 29  1  0
  4 30  1  0
  4 31  1  0
  9 32  1  0
 10 33  1  0
 11 34  1  0
 12 35  1  0
 17 36  1  0
 18 37  1  0
 20 38  1  0
 24 39  1  0
 25 40  1  0
 25 41  1  0
 26 42  1  0
 26 43  1  0
 27 44  1  0
 27 45  1  0
 28 46  1  0
 28 47  1  0
M  END
>  <Energy>  (627) 
607.86776446369379

>  <compound_id>  (627) 
57354

>  <target_id>  (627) 
1

>  <reference_id>  (627) 
48

>  <inspiration_ids>  (627) 
[48, 40]

>  <energy_score>  (627) 
489.33830106977587

>  <distance_score>  (627) 
12.441956196824357

>  <path>  (627) 
/opt/xchem-fragalysis-2/maxwin/BulkDock/SCRATCH/511021/C57354-P48/C57354-P48.minimised.mol

>  <scratch_subdir>  (627) 
/opt/xchem-fragalysis-2/maxwin/BulkDock/SCRATCH/511021/C57354-P48

>  <fragmenstein_runtime>  (627) 
28.482399463653564

>  <fragmenstein_outcome>  (627) 
too moved

>  <fragmenstein_mode>  (627) 
expansion

>  <fragmenstein_error>  (627) 


$$$$
C57354-P40
     RDKit          3D

 47 51  0  0  0  0  0  0  0  0999 V2000
   -2.7432  -12.2111   29.6884 O   0  0  0  0  0  0  0  0  0  0  0  0
   -2.2025  -11.4423   28.9471 C   0  0  0  0  0  0  0  0  0  0  0  0
   -2.1751  -11.4848   27.3173 N   0  0  0  0  0  0  0  0  0  0  0  0
   -2.7328  -12.5663   26.2914 C   0  0  0  0  0  0  0  0  0  0  0  0
   -2.1841  -13.6406   24.9763 C   0  0  0  0  0  0  0  0  0  0  0  0
   -2.6007  -13.9071   23.6529 N   0  0  0  0  0  0  0  0  0  0  0  0
   -3.7150  -15.1907   23.3925 C   0  0  0  0  0  0  0  0  0  0  0  0
   -4.1553  -16.3306   21.7955 C   0  0  0  0  0  0  0  0  0  0  0  0
   -5.3016  -17.4148   21.3760 C   0  0  0  0  0  0  0  0  0  0  0  0
   -5.3864  -18.1993   20.1492 C   0  0  0  0  0  0  0  0  0  0  0  0
   -4.3330  -18.1094   19.2517 C   0  0  0  0  0  0  0  0  0  0  0  0
   -3.3291  -17.1781   19.5568 C   0  0  0  0  0  0  0  0  0  0  0  0
   -3.2701  -16.2883   20.6678 N   0  0  0  0  0  0  0  0  0  0  0  0
   -3.1801  -15.7572   24.6367 N   0  0  0  0  0  0  0  0  0  0  0  0
   -2.4837  -14.9172   25.5430 O   0  0  0  0  0  0  0  0  0  0  0  0
   -1.1097  -10.0674   29.8141 C   0  0  0  0  0  0  0  0  0  0  0  0
   -1.3305   -9.5142   31.1647 C   0  0  0  0  0  0  0  0  0  0  0  0
   -1.0388   -8.2171   31.7280 C   0  0  0  0  0  0  0  0  0  0  0  0
   -0.3832   -7.3027   30.9475 C   0  0  0  0  0  0  0  0  0  0  0  0
    0.0003   -6.0177   31.2247 N   0  0  0  0  0  0  0  0  0  0  0  0
    0.8793   -5.6055   30.2711 C   0  0  0  0  0  0  0  0  0  0  0  0
    0.9939   -6.6022   29.3149 C   0  0  0  0  0  0  0  0  0  0  0  0
    0.0973   -7.6756   29.7080 C   0  0  0  0  0  0  0  0  0  0  0  0
   -0.2721   -9.0316   29.2545 C   0  0  0  0  0  0  0  0  0  0  0  0
    1.9876   -6.4124   28.2073 C   0  0  0  0  0  0  0  0  0  0  0  0
    3.1360   -5.4795   28.6315 C   0  0  0  0  0  0  0  0  0  0  0  0
    2.5748   -4.1492   29.1595 C   0  0  0  0  0  0  0  0  0  0  0  0
    1.6682   -4.3426   30.3831 C   0  0  0  0  0  0  0  0  0  0  0  0
   -1.7256  -10.6816   26.9817 H   0  0  0  0  0  0  0  0  0  0  0  0
   -3.2113  -13.1868   27.0208 H   0  0  0  0  0  0  0  0  0  0  0  0
   -3.2309  -12.0253   25.5385 H   0  0  0  0  0  0  0  0  0  0  0  0
   -6.0337  -17.7704   22.1203 H   0  0  0  0  0  0  0  0  0  0  0  0
   -6.1899  -18.9131   20.0138 H   0  0  0  0  0  0  0  0  0  0  0  0
   -4.2793  -18.7324   18.3675 H   0  0  0  0  0  0  0  0  0  0  0  0
   -2.4861  -17.0492   18.8781 H   0  0  0  0  0  0  0  0  0  0  0  0
   -1.9736   -9.9140   31.9098 H   0  0  0  0  0  0  0  0  0  0  0  0
   -1.3746   -7.9811   32.7368 H   0  0  0  0  0  0  0  0  0  0  0  0
   -0.2136   -5.5220   32.0816 H   0  0  0  0  0  0  0  0  0  0  0  0
    0.4977   -9.2698   28.5963 H   0  0  0  0  0  0  0  0  0  0  0  0
    2.3917   -7.3572   27.8457 H   0  0  0  0  0  0  0  0  0  0  0  0
    1.5000   -5.9132   27.3703 H   0  0  0  0  0  0  0  0  0  0  0  0
    3.7515   -5.9571   29.4021 H   0  0  0  0  0  0  0  0  0  0  0  0
    3.7853   -5.2871   27.7698 H   0  0  0  0  0  0  0  0  0  0  0  0
    1.9993   -3.6664   28.3586 H   0  0  0  0  0  0  0  0  0  0  0  0
    3.3938   -3.4665   29.4122 H   0  0  0  0  0  0  0  0  0  0  0  0
    2.2922   -4.3997   31.2837 H   0  0  0  0  0  0  0  0  0  0  0  0
    1.0043   -3.4787   30.4972 H   0  0  0  0  0  0  0  0  0  0  0  0
  1  2  2  0
  2  3  1  0
  3  4  1  0
  4  5  1  0
  5  6  2  0
  6  7  1  0
  7  8  1  0
  8  9  2  0
  9 10  1  0
 10 11  2  0
 11 12  1  0
 12 13  2  0
  7 14  2  0
 14 15  1  0
  2 16  1  0
 16 17  2  0
 17 18  1  0
 18 19  2  0
 19 20  1  0
 20 21  1  0
 21 22  2  0
 22 23  1  0
 23 24  2  0
 22 25  1  0
 25 26  1  0
 26 27  1  0
 27 28  1  0
 15  5  1  0
 24 16  1  0
 13  8  1  0
 23 19  1  0
 28 21  1  0
  3 29  1  0
  4 30  1  0
  4 31  1  0
  9 32  1  0
 10 33  1  0
 11 34  1  0
 12 35  1  0
 17 36  1  0
 18 37  1  0
 20 38  1  0
 24 39  1  0
 25 40  1  0
 25 41  1  0
 26 42  1  0
 26 43  1  0
 27 44  1  0
 27 45  1  0
 28 46  1  0
 28 47  1  0
M  END
>  <Energy>  (628) 
520.99490955861893

>  <compound_id>  (628) 
57354

>  <target_id>  (628) 
1

>  <reference_id>  (628) 
40

>  <inspiration_ids>  (628) 
[48, 40]

>  <energy_score>  (628) 
402.4654461647126

>  <distance_score>  (628) 
10.658626873372482

>  <path>  (628) 
/opt/xchem-fragalysis-2/maxwin/BulkDock/SCRATCH/511021/C57354-P40/C57354-P40.minimised.mol

>  <scratch_subdir>  (628) 
/opt/xchem-fragalysis-2/maxwin/BulkDock/SCRATCH/511021/C57354-P40

>  <fragmenstein_runtime>  (628) 
15.83229398727417

>  <fragmenstein_outcome>  (628) 
too moved

>  <fragmenstein_mode>  (628) 
expansion

>  <fragmenstein_error>  (628) 


$$$$
C57355-P48
     RDKit          3D

 53 56  0  0  0  0  0  0  0  0999 V2000
   -5.2830   -5.3959   22.4953 C   0  0  0  0  0  0  0  0  0  0  0  0
   -5.2432   -6.8405   22.7998 N   0  0  0  0  0  0  0  0  0  0  0  0
   -6.2915   -7.6503   21.9649 C   0  0  0  0  0  0  0  0  0  0  0  0
   -6.6243   -7.3699   20.4539 C   0  0  0  0  0  0  0  0  0  0  0  0
   -6.4831   -6.2400   20.0695 O   0  0  0  0  0  0  0  0  0  0  0  0
   -7.1612   -8.5568   19.7643 N   0  0  0  0  0  0  0  0  0  0  0  0
   -7.7775   -8.7012   18.4335 C   0  0  0  0  0  0  0  0  0  0  0  0
   -7.7429  -10.0013   17.6309 C   0  0  0  0  0  0  0  0  0  0  0  0
   -6.7359  -10.9501   17.7262 C   0  0  0  0  0  0  0  0  0  0  0  0
   -6.6414  -11.9550   16.7624 C   0  0  0  0  0  0  0  0  0  0  0  0
   -7.5521  -12.0093   15.7202 C   0  0  0  0  0  0  0  0  0  0  0  0
   -8.5786  -11.1510   15.6117 N   0  0  0  0  0  0  0  0  0  0  0  0
   -8.6444  -10.1789   16.5602 C   0  0  0  0  0  0  0  0  0  0  0  0
   -3.6481   -7.5787   22.5934 S   0  0  0  0  0  0  0  0  0  0  0  0
   -3.4565   -7.4404   21.1497 O   0  0  0  0  0  0  0  0  0  0  0  0
   -3.8800   -9.0131   22.8272 O   0  0  0  0  0  0  0  0  0  0  0  0
   -2.1483   -6.7531   24.3939 C   0  0  0  0  0  0  0  0  0  0  0  0
   -1.7925   -5.5250   24.5870 C   0  0  0  0  0  0  0  0  0  0  0  0
   -1.8306   -5.2135   26.1878 C   0  0  0  0  0  0  0  0  0  0  0  0
   -1.8792   -5.4554   27.8850 C   0  0  0  0  0  0  0  0  0  0  0  0
   -1.1347   -4.7922   28.8691 N   0  0  0  0  0  0  0  0  0  0  0  0
   -0.7458   -5.7317   29.7900 C   0  0  0  0  0  0  0  0  0  0  0  0
   -1.3418   -7.0089   29.4516 C   0  0  0  0  0  0  0  0  0  0  0  0
   -2.3024   -6.8913   27.9849 C   0  0  0  0  0  0  0  0  0  0  0  0
   -2.4147   -7.2999   26.1910 C   0  0  0  0  0  0  0  0  0  0  0  0
   -1.0742   -8.0704   30.4902 C   0  0  0  0  0  0  0  0  0  0  0  0
    0.0169   -7.7202   31.5108 C   0  0  0  0  0  0  0  0  0  0  0  0
   -0.0945   -6.3129   32.0761 C   0  0  0  0  0  0  0  0  0  0  0  0
    0.1010   -5.3254   30.9441 C   0  0  0  0  0  0  0  0  0  0  0  0
   -6.3124   -5.0298   22.5551 H   0  0  0  0  0  0  0  0  0  0  0  0
   -4.8791   -5.1672   21.5071 H   0  0  0  0  0  0  0  0  0  0  0  0
   -4.6999   -4.8458   23.2355 H   0  0  0  0  0  0  0  0  0  0  0  0
   -6.0943   -8.7195   22.0825 H   0  0  0  0  0  0  0  0  0  0  0  0
   -7.2413   -7.4868   22.4950 H   0  0  0  0  0  0  0  0  0  0  0  0
   -7.2097   -9.3272   20.4192 H   0  0  0  0  0  0  0  0  0  0  0  0
   -8.8295   -8.4349   18.5939 H   0  0  0  0  0  0  0  0  0  0  0  0
   -7.3443   -7.9093   17.8104 H   0  0  0  0  0  0  0  0  0  0  0  0
   -5.9665  -10.8706   18.4910 H   0  0  0  0  0  0  0  0  0  0  0  0
   -5.8117  -12.6378   16.8243 H   0  0  0  0  0  0  0  0  0  0  0  0
   -7.4877  -12.7600   14.9404 H   0  0  0  0  0  0  0  0  0  0  0  0
   -9.4545   -9.4691   16.3999 H   0  0  0  0  0  0  0  0  0  0  0  0
   -2.1781   -4.7427   24.0121 H   0  0  0  0  0  0  0  0  0  0  0  0
   -2.6771   -4.4441   25.9601 H   0  0  0  0  0  0  0  0  0  0  0  0
   -0.8007   -3.8433   28.7638 H   0  0  0  0  0  0  0  0  0  0  0  0
   -2.8070   -8.2973   26.1988 H   0  0  0  0  0  0  0  0  0  0  0  0
   -1.9573   -8.1342   31.1367 H   0  0  0  0  0  0  0  0  0  0  0  0
   -0.8215   -9.0238   30.0198 H   0  0  0  0  0  0  0  0  0  0  0  0
   -0.0416   -8.4229   32.3443 H   0  0  0  0  0  0  0  0  0  0  0  0
    0.9824   -7.8149   31.0211 H   0  0  0  0  0  0  0  0  0  0  0  0
    0.6641   -6.1500   32.8496 H   0  0  0  0  0  0  0  0  0  0  0  0
   -1.0754   -6.1753   32.5467 H   0  0  0  0  0  0  0  0  0  0  0  0
   -0.1543   -4.3160   31.2859 H   0  0  0  0  0  0  0  0  0  0  0  0
    1.1517   -5.3112   30.6298 H   0  0  0  0  0  0  0  0  0  0  0  0
  1  2  1  0
  2  3  1  0
  3  4  1  0
  4  5  2  0
  4  6  1  0
  6  7  1  0
  7  8  1  0
  8  9  2  0
  9 10  1  0
 10 11  2  0
 11 12  1  0
 12 13  2  0
  2 14  1  0
 14 15  2  0
 14 16  2  0
 14 17  1  0
 17 18  2  0
 18 19  1  0
 19 20  2  0
 20 21  1  0
 21 22  1  0
 22 23  2  0
 23 24  1  0
 24 25  2  0
 23 26  1  0
 26 27  1  0
 27 28  1  0
 28 29  1  0
 13  8  1  0
 25 17  1  0
 24 20  1  0
 29 22  1  0
  1 30  1  0
  1 31  1  0
  1 32  1  0
  3 33  1  0
  3 34  1  0
  6 35  1  0
  7 36  1  0
  7 37  1  0
  9 38  1  0
 10 39  1  0
 11 40  1  0
 13 41  1  0
 18 42  1  0
 19 43  1  0
 21 44  1  0
 25 45  1  0
 26 46  1  0
 26 47  1  0
 27 48  1  0
 27 49  1  0
 28 50  1  0
 28 51  1  0
 29 52  1  0
 29 53  1  0
M  END
>  <Energy>  (629) 
511.52394176394796

>  <compound_id>  (629) 
57355

>  <target_id>  (629) 
1

>  <reference_id>  (629) 
48

>  <inspiration_ids>  (629) 
[48, 40]

>  <energy_score>  (629) 
458.9808911926849

>  <distance_score>  (629) 
11.791647959100318

>  <path>  (629) 
/opt/xchem-fragalysis-2/maxwin/BulkDock/SCRATCH/511021/C57355-P48/C57355-P48.minimised.mol

>  <scratch_subdir>  (629) 
/opt/xchem-fragalysis-2/maxwin/BulkDock/SCRATCH/511021/C57355-P48

>  <fragmenstein_runtime>  (629) 
28.22895646095276

>  <fragmenstein_outcome>  (629) 
too moved

>  <fragmenstein_mode>  (629) 
expansion

>  <fragmenstein_error>  (629) 


$$$$
C57355-P40
     RDKit          3D

 53 56  0  0  0  0  0  0  0  0999 V2000
   -3.8342  -11.2759   23.9488 C   0  0  0  0  0  0  0  0  0  0  0  0
   -3.4363   -9.4112   24.0783 N   0  0  0  0  0  0  0  0  0  0  0  0
   -4.8586   -9.7140   22.4859 C   0  0  0  0  0  0  0  0  0  0  0  0
   -6.3021  -11.1689   21.9851 C   0  0  0  0  0  0  0  0  0  0  0  0
   -6.6891  -11.7011   22.9793 O   0  0  0  0  0  0  0  0  0  0  0  0
   -7.0594  -11.7584   20.3309 N   0  0  0  0  0  0  0  0  0  0  0  0
   -8.5125  -13.1267   19.8928 C   0  0  0  0  0  0  0  0  0  0  0  0
   -9.1755  -14.9640   19.1872 C   0  0  0  0  0  0  0  0  0  0  0  0
  -10.2639  -15.8957   19.3566 C   0  0  0  0  0  0  0  0  0  0  0  0
  -10.8978  -17.3785   18.2200 C   0  0  0  0  0  0  0  0  0  0  0  0
   -9.6402  -18.2961   17.4252 C   0  0  0  0  0  0  0  0  0  0  0  0
   -8.4568  -17.5110   17.3374 N   0  0  0  0  0  0  0  0  0  0  0  0
   -8.5919  -16.0488   17.9664 C   0  0  0  0  0  0  0  0  0  0  0  0
   -3.0682   -8.1820   26.3433 S   0  0  0  0  0  0  0  0  0  0  0  0
   -4.2199   -7.9006   27.3334 O   0  0  0  0  0  0  0  0  0  0  0  0
   -2.6583   -6.9968   25.7712 O   0  0  0  0  0  0  0  0  0  0  0  0
   -1.5020   -7.7216   28.1399 C   0  0  0  0  0  0  0  0  0  0  0  0
   -1.9193   -7.2196   29.3658 C   0  0  0  0  0  0  0  0  0  0  0  0
   -1.0875   -6.7436   30.4371 C   0  0  0  0  0  0  0  0  0  0  0  0
    0.2014   -6.4229   30.0568 C   0  0  0  0  0  0  0  0  0  0  0  0
    1.1049   -5.5275   30.5695 N   0  0  0  0  0  0  0  0  0  0  0  0
    2.1533   -5.4120   29.7005 C   0  0  0  0  0  0  0  0  0  0  0  0
    1.9840   -6.3154   28.6648 C   0  0  0  0  0  0  0  0  0  0  0  0
    0.7531   -7.0034   28.9238 C   0  0  0  0  0  0  0  0  0  0  0  0
   -0.0848   -7.9919   28.2827 C   0  0  0  0  0  0  0  0  0  0  0  0
    2.9846   -6.3994   27.5494 C   0  0  0  0  0  0  0  0  0  0  0  0
    3.9359   -5.1858   27.5300 C   0  0  0  0  0  0  0  0  0  0  0  0
    4.4244   -4.8024   28.9343 C   0  0  0  0  0  0  0  0  0  0  0  0
    3.2530   -4.4169   29.8488 C   0  0  0  0  0  0  0  0  0  0  0  0
   -4.8820  -11.5255   24.1490 H   0  0  0  0  0  0  0  0  0  0  0  0
   -4.0018  -11.4713   22.9116 H   0  0  0  0  0  0  0  0  0  0  0  0
   -3.1458  -11.8685   24.5558 H   0  0  0  0  0  0  0  0  0  0  0  0
   -5.4297   -8.7601   22.5018 H   0  0  0  0  0  0  0  0  0  0  0  0
   -4.2557   -9.5592   21.6019 H   0  0  0  0  0  0  0  0  0  0  0  0
   -6.7040  -11.1662   19.5853 H   0  0  0  0  0  0  0  0  0  0  0  0
   -9.3254  -12.7605   20.5346 H   0  0  0  0  0  0  0  0  0  0  0  0
   -8.7212  -12.6279   18.9333 H   0  0  0  0  0  0  0  0  0  0  0  0
   -9.6737  -16.2971   20.1600 H   0  0  0  0  0  0  0  0  0  0  0  0
  -11.5183  -17.3842   17.3439 H   0  0  0  0  0  0  0  0  0  0  0  0
   -9.8588  -18.8194   16.4851 H   0  0  0  0  0  0  0  0  0  0  0  0
   -7.9761  -15.7706   17.0955 H   0  0  0  0  0  0  0  0  0  0  0  0
   -2.9727   -7.2610   29.5110 H   0  0  0  0  0  0  0  0  0  0  0  0
   -1.5105   -6.3864   31.3685 H   0  0  0  0  0  0  0  0  0  0  0  0
    0.9445   -4.9361   31.3748 H   0  0  0  0  0  0  0  0  0  0  0  0
    0.0144   -8.9021   28.9217 H   0  0  0  0  0  0  0  0  0  0  0  0
    3.5772   -7.3104   27.6656 H   0  0  0  0  0  0  0  0  0  0  0  0
    2.4988   -6.4432   26.5747 H   0  0  0  0  0  0  0  0  0  0  0  0
    4.7924   -5.4068   26.8828 H   0  0  0  0  0  0  0  0  0  0  0  0
    3.4169   -4.3257   27.0868 H   0  0  0  0  0  0  0  0  0  0  0  0
    5.1298   -3.9664   28.8710 H   0  0  0  0  0  0  0  0  0  0  0  0
    4.9692   -5.6511   29.3674 H   0  0  0  0  0  0  0  0  0  0  0  0
    3.5934   -4.3568   30.8879 H   0  0  0  0  0  0  0  0  0  0  0  0
    2.8768   -3.4265   29.5654 H   0  0  0  0  0  0  0  0  0  0  0  0
  1  2  1  0
  2  3  1  0
  3  4  1  0
  4  5  2  0
  4  6  1  0
  6  7  1  0
  7  8  1  0
  8  9  2  0
  9 10  1  0
 10 11  2  0
 11 12  1  0
 12 13  2  0
  2 14  1  0
 14 15  2  0
 14 16  2  0
 14 17  1  0
 17 18  2  0
 18 19  1  0
 19 20  2  0
 20 21  1  0
 21 22  1  0
 22 23  2  0
 23 24  1  0
 24 25  2  0
 23 26  1  0
 26 27  1  0
 27 28  1  0
 28 29  1  0
 13  8  1  0
 25 17  1  0
 24 20  1  0
 29 22  1  0
  1 30  1  0
  1 31  1  0
  1 32  1  0
  3 33  1  0
  3 34  1  0
  6 35  1  0
  7 36  1  0
  7 37  1  0
  9 38  1  0
 10 39  1  0
 11 40  1  0
 13 41  1  0
 18 42  1  0
 19 43  1  0
 21 44  1  0
 25 45  1  0
 26 46  1  0
 26 47  1  0
 27 48  1  0
 27 49  1  0
 28 50  1  0
 28 51  1  0
 29 52  1  0
 29 53  1  0
M  END
>  <Energy>  (630) 
1543.8841768570314

>  <compound_id>  (630) 
57355

>  <target_id>  (630) 
1

>  <reference_id>  (630) 
40

>  <inspiration_ids>  (630) 
[48, 40]

>  <energy_score>  (630) 
1491.3411262857485

>  <distance_score>  (630) 
8.902241609947858

>  <path>  (630) 
/opt/xchem-fragalysis-2/maxwin/BulkDock/SCRATCH/511021/C57355-P40/C57355-P40.minimised.mol

>  <scratch_subdir>  (630) 
/opt/xchem-fragalysis-2/maxwin/BulkDock/SCRATCH/511021/C57355-P40

>  <fragmenstein_runtime>  (630) 
32.77363729476929

>  <fragmenstein_outcome>  (630) 
too moved

>  <fragmenstein_mode>  (630) 
expansion

>  <fragmenstein_error>  (630) 


$$$$
C57356-P48
     RDKit          3D

 43 46  0  0  0  0  0  0  0  0999 V2000
   -2.1948  -15.9740   26.6206 O   0  0  0  0  0  0  0  0  0  0  0  0
   -2.5789  -14.8126   25.7649 S   0  0  0  0  0  0  0  0  0  0  0  0
   -1.8624  -13.6068   25.4550 O   0  0  0  0  0  0  0  0  0  0  0  0
   -3.9181  -15.3846   23.9058 N   0  0  0  0  0  0  0  0  0  0  0  0
   -4.2907  -16.5646   22.1991 C   0  0  0  0  0  0  0  0  0  0  0  0
   -5.7079  -17.6812   21.5292 C   0  0  0  0  0  0  0  0  0  0  0  0
   -5.6188  -18.2377   20.1810 C   0  0  0  0  0  0  0  0  0  0  0  0
   -6.2654  -19.4118   19.7823 C   0  0  0  0  0  0  0  0  0  0  0  0
   -7.0229  -20.0456   20.7285 C   0  0  0  0  0  0  0  0  0  0  0  0
   -7.2260  -19.5406   21.9688 N   0  0  0  0  0  0  0  0  0  0  0  0
   -6.6127  -18.3697   22.3180 C   0  0  0  0  0  0  0  0  0  0  0  0
   -2.9753  -13.3078   27.3317 C   0  0  0  0  0  0  0  0  0  0  0  0
   -2.9499  -13.7690   28.5988 C   0  0  0  0  0  0  0  0  0  0  0  0
   -3.1079  -12.8046   29.5669 C   0  0  0  0  0  0  0  0  0  0  0  0
   -2.3286  -11.4935   29.5679 C   0  0  0  0  0  0  0  0  0  0  0  0
   -1.5946  -10.7161   30.6262 N   0  0  0  0  0  0  0  0  0  0  0  0
   -1.1152   -9.5077   30.4499 C   0  0  0  0  0  0  0  0  0  0  0  0
   -0.7597   -9.6275   29.1339 C   0  0  0  0  0  0  0  0  0  0  0  0
   -1.8222  -10.9525   28.4432 C   0  0  0  0  0  0  0  0  0  0  0  0
   -2.5517  -11.9027   27.2224 C   0  0  0  0  0  0  0  0  0  0  0  0
    0.4484   -8.7410   29.0763 C   0  0  0  0  0  0  0  0  0  0  0  0
    0.3529   -7.3788   29.9665 C   0  0  0  0  0  0  0  0  0  0  0  0
    0.0829   -7.5486   31.4323 C   0  0  0  0  0  0  0  0  0  0  0  0
   -1.0436   -8.5209   31.5776 C   0  0  0  0  0  0  0  0  0  0  0  0
   -3.0845  -15.0419   23.4087 H   0  0  0  0  0  0  0  0  0  0  0  0
   -3.5274  -16.6520   21.3831 H   0  0  0  0  0  0  0  0  0  0  0  0
   -4.7730  -15.8749   21.6844 H   0  0  0  0  0  0  0  0  0  0  0  0
   -4.9499  -17.8222   19.4378 H   0  0  0  0  0  0  0  0  0  0  0  0
   -6.1413  -19.8223   18.7897 H   0  0  0  0  0  0  0  0  0  0  0  0
   -7.5399  -20.9755   20.5204 H   0  0  0  0  0  0  0  0  0  0  0  0
   -6.7525  -18.1025   23.3461 H   0  0  0  0  0  0  0  0  0  0  0  0
   -2.9802  -14.8233   28.8573 H   0  0  0  0  0  0  0  0  0  0  0  0
   -3.3846  -13.3250   30.4813 H   0  0  0  0  0  0  0  0  0  0  0  0
   -1.5008  -11.0014   31.5663 H   0  0  0  0  0  0  0  0  0  0  0  0
   -2.5871  -11.6033   26.2087 H   0  0  0  0  0  0  0  0  0  0  0  0
    0.9324   -8.6263   28.1422 H   0  0  0  0  0  0  0  0  0  0  0  0
    1.2901   -9.2015   29.5570 H   0  0  0  0  0  0  0  0  0  0  0  0
   -0.4951   -6.7634   29.6420 H   0  0  0  0  0  0  0  0  0  0  0  0
    1.2723   -6.7942   29.8353 H   0  0  0  0  0  0  0  0  0  0  0  0
    0.9706   -7.8618   31.9679 H   0  0  0  0  0  0  0  0  0  0  0  0
   -0.1880   -6.5873   31.8871 H   0  0  0  0  0  0  0  0  0  0  0  0
   -0.9916   -8.9865   32.5587 H   0  0  0  0  0  0  0  0  0  0  0  0
   -1.9850   -7.9567   31.5855 H   0  0  0  0  0  0  0  0  0  0  0  0
  1  2  2  0
  2  3  2  0
  2  4  1  0
  4  5  1  0
  5  6  1  0
  6  7  2  0
  7  8  1  0
  8  9  2  0
  9 10  1  0
 10 11  2  0
  2 12  1  0
 12 13  2  0
 13 14  1  0
 14 15  2  0
 15 16  1  0
 16 17  1  0
 17 18  2  0
 18 19  1  0
 19 20  2  0
 18 21  1  0
 21 22  1  0
 22 23  1  0
 23 24  1  0
 11  6  1  0
 20 12  1  0
 19 15  1  0
 24 17  1  0
  4 25  1  0
  5 26  1  0
  5 27  1  0
  7 28  1  0
  8 29  1  0
  9 30  1  0
 11 31  1  0
 13 32  1  0
 14 33  1  0
 16 34  1  0
 20 35  1  0
 21 36  1  0
 21 37  1  0
 22 38  1  0
 22 39  1  0
 23 40  1  0
 23 41  1  0
 24 42  1  0
 24 43  1  0
M  END
>  <Energy>  (631) 
639.74060693026854

>  <compound_id>  (631) 
57356

>  <target_id>  (631) 
1

>  <reference_id>  (631) 
48

>  <inspiration_ids>  (631) 
[48, 40]

>  <energy_score>  (631) 
644.7631943463061

>  <distance_score>  (631) 
11.35923715587947

>  <path>  (631) 
/opt/xchem-fragalysis-2/maxwin/BulkDock/SCRATCH/511021/C57356-P48/C57356-P48.minimised.mol

>  <scratch_subdir>  (631) 
/opt/xchem-fragalysis-2/maxwin/BulkDock/SCRATCH/511021/C57356-P48

>  <fragmenstein_runtime>  (631) 
9.095128059387207

>  <fragmenstein_outcome>  (631) 
too moved

>  <fragmenstein_mode>  (631) 
expansion

>  <fragmenstein_error>  (631) 


$$$$
C57356-P40
     RDKit          3D

 43 46  0  0  0  0  0  0  0  0999 V2000
   -4.0882  -12.3889   27.3065 O   0  0  0  0  0  0  0  0  0  0  0  0
   -2.8097  -12.8526   26.8134 S   0  0  0  0  0  0  0  0  0  0  0  0
   -2.5200  -14.0683   27.6581 O   0  0  0  0  0  0  0  0  0  0  0  0
   -2.3320  -14.1726   24.9382 N   0  0  0  0  0  0  0  0  0  0  0  0
   -3.7055  -15.1412   23.6112 C   0  0  0  0  0  0  0  0  0  0  0  0
   -4.2299  -16.4078   22.0347 C   0  0  0  0  0  0  0  0  0  0  0  0
   -5.5168  -17.6274   21.9894 C   0  0  0  0  0  0  0  0  0  0  0  0
   -6.1321  -18.4480   20.9950 C   0  0  0  0  0  0  0  0  0  0  0  0
   -5.5485  -18.3699   19.8034 C   0  0  0  0  0  0  0  0  0  0  0  0
   -4.4890  -17.5449   19.6830 N   0  0  0  0  0  0  0  0  0  0  0  0
   -3.8095  -16.6008   20.7275 C   0  0  0  0  0  0  0  0  0  0  0  0
   -1.9309  -11.2283   28.2280 C   0  0  0  0  0  0  0  0  0  0  0  0
   -2.1435  -11.2619   29.5803 C   0  0  0  0  0  0  0  0  0  0  0  0
   -1.4072  -10.1149   30.7369 C   0  0  0  0  0  0  0  0  0  0  0  0
   -0.7687   -8.8591   30.5020 C   0  0  0  0  0  0  0  0  0  0  0  0
   -0.5775   -7.7578   31.2698 N   0  0  0  0  0  0  0  0  0  0  0  0
    0.0877   -6.8446   30.5179 C   0  0  0  0  0  0  0  0  0  0  0  0
    0.4827   -7.4572   29.3236 C   0  0  0  0  0  0  0  0  0  0  0  0
   -0.3257   -8.6769   29.2218 C   0  0  0  0  0  0  0  0  0  0  0  0
   -0.7180  -10.0450   28.4526 C   0  0  0  0  0  0  0  0  0  0  0  0
    1.5848   -6.7267   28.5880 C   0  0  0  0  0  0  0  0  0  0  0  0
    1.5155   -5.1976   28.7654 C   0  0  0  0  0  0  0  0  0  0  0  0
    1.5490   -4.8328   30.2530 C   0  0  0  0  0  0  0  0  0  0  0  0
    0.3921   -5.4704   31.0235 C   0  0  0  0  0  0  0  0  0  0  0  0
   -2.3954  -14.9375   25.6442 H   0  0  0  0  0  0  0  0  0  0  0  0
   -3.1057  -14.5924   22.9602 H   0  0  0  0  0  0  0  0  0  0  0  0
   -4.6077  -14.5306   23.5537 H   0  0  0  0  0  0  0  0  0  0  0  0
   -6.0947  -17.8093   22.9214 H   0  0  0  0  0  0  0  0  0  0  0  0
   -6.9531  -19.1094   21.2230 H   0  0  0  0  0  0  0  0  0  0  0  0
   -5.8429  -18.9415   18.9384 H   0  0  0  0  0  0  0  0  0  0  0  0
   -2.9692  -16.0831   20.2602 H   0  0  0  0  0  0  0  0  0  0  0  0
   -2.8873  -12.0442   29.8000 H   0  0  0  0  0  0  0  0  0  0  0  0
   -1.6800  -10.0679   31.7892 H   0  0  0  0  0  0  0  0  0  0  0  0
   -0.9037   -7.6340   32.2221 H   0  0  0  0  0  0  0  0  0  0  0  0
   -0.0369  -10.4839   29.2003 H   0  0  0  0  0  0  0  0  0  0  0  0
    1.7225   -6.9817   27.5597 H   0  0  0  0  0  0  0  0  0  0  0  0
    2.5475   -7.0063   29.0229 H   0  0  0  0  0  0  0  0  0  0  0  0
    0.6120   -4.7801   28.3127 H   0  0  0  0  0  0  0  0  0  0  0  0
    2.3718   -4.7356   28.2603 H   0  0  0  0  0  0  0  0  0  0  0  0
    2.5003   -5.1717   30.6805 H   0  0  0  0  0  0  0  0  0  0  0  0
    1.5218   -3.7443   30.3774 H   0  0  0  0  0  0  0  0  0  0  0  0
    0.6281   -5.4902   32.0936 H   0  0  0  0  0  0  0  0  0  0  0  0
   -0.5055   -4.8524   30.9009 H   0  0  0  0  0  0  0  0  0  0  0  0
  1  2  2  0
  2  3  2  0
  2  4  1  0
  4  5  1  0
  5  6  1  0
  6  7  2  0
  7  8  1  0
  8  9  2  0
  9 10  1  0
 10 11  2  0
  2 12  1  0
 12 13  2  0
 13 14  1  0
 14 15  2  0
 15 16  1  0
 16 17  1  0
 17 18  2  0
 18 19  1  0
 19 20  2  0
 18 21  1  0
 21 22  1  0
 22 23  1  0
 23 24  1  0
 11  6  1  0
 20 12  1  0
 19 15  1  0
 24 17  1  0
  4 25  1  0
  5 26  1  0
  5 27  1  0
  7 28  1  0
  8 29  1  0
  9 30  1  0
 11 31  1  0
 13 32  1  0
 14 33  1  0
 16 34  1  0
 20 35  1  0
 21 36  1  0
 21 37  1  0
 22 38  1  0
 22 39  1  0
 23 40  1  0
 23 41  1  0
 24 42  1  0
 24 43  1  0
M  END
>  <Energy>  (632) 
825.35076037986221

>  <compound_id>  (632) 
57356

>  <target_id>  (632) 
1

>  <reference_id>  (632) 
40

>  <inspiration_ids>  (632) 
[48, 40]

>  <energy_score>  (632) 
830.3733477959026

>  <distance_score>  (632) 
10.99699868265014

>  <path>  (632) 
/opt/xchem-fragalysis-2/maxwin/BulkDock/SCRATCH/511021/C57356-P40/C57356-P40.minimised.mol

>  <scratch_subdir>  (632) 
/opt/xchem-fragalysis-2/maxwin/BulkDock/SCRATCH/511021/C57356-P40

>  <fragmenstein_runtime>  (632) 
9.820885419845581

>  <fragmenstein_outcome>  (632) 
too moved

>  <fragmenstein_mode>  (632) 
expansion

>  <fragmenstein_error>  (632) 


$$$$
C57357-P48
     RDKit          3D

 46 49  0  0  0  0  0  0  0  0999 V2000
   -5.6078  -11.0134   18.2416 C   0  0  0  0  0  0  0  0  0  0  0  0
   -6.7230  -10.2417   17.9922 C   0  0  0  0  0  0  0  0  0  0  0  0
   -7.2223   -9.3730   18.8930 N   0  0  0  0  0  0  0  0  0  0  0  0
   -6.5452   -9.2431   20.0679 C   0  0  0  0  0  0  0  0  0  0  0  0
   -5.4636  -10.0212   20.4537 C   0  0  0  0  0  0  0  0  0  0  0  0
   -4.9773  -10.0939   21.8961 C   0  0  0  0  0  0  0  0  0  0  0  0
   -4.2580   -8.9706   22.6315 N   0  0  0  0  0  0  0  0  0  0  0  0
   -3.4414   -9.6016   23.9114 C   0  0  0  0  0  0  0  0  0  0  0  0
   -2.6563   -8.9554   25.7013 C   0  0  0  0  0  0  0  0  0  0  0  0
   -2.6892   -7.6018   26.7103 C   0  0  0  0  0  0  0  0  0  0  0  0
   -2.1236   -7.3787   28.2807 C   0  0  0  0  0  0  0  0  0  0  0  0
   -1.1830   -8.2861   28.9282 C   0  0  0  0  0  0  0  0  0  0  0  0
   -0.6747   -8.3061   30.1995 N   0  0  0  0  0  0  0  0  0  0  0  0
    0.6182   -7.9586   29.9755 C   0  0  0  0  0  0  0  0  0  0  0  0
    0.9376   -8.6658   28.7609 C   0  0  0  0  0  0  0  0  0  0  0  0
   -0.6013   -9.3832   28.1477 C   0  0  0  0  0  0  0  0  0  0  0  0
   -1.5811   -9.9174   26.5615 C   0  0  0  0  0  0  0  0  0  0  0  0
    2.2180   -8.0209   27.9392 C   0  0  0  0  0  0  0  0  0  0  0  0
    3.0929   -6.8703   28.4924 C   0  0  0  0  0  0  0  0  0  0  0  0
    2.4487   -5.5409   28.8769 C   0  0  0  0  0  0  0  0  0  0  0  0
    1.3509   -5.5105   29.9387 C   0  0  0  0  0  0  0  0  0  0  0  0
    1.1212   -6.7642   30.7677 C   0  0  0  0  0  0  0  0  0  0  0  0
   -5.0195  -10.9383   19.4934 C   0  0  0  0  0  0  0  0  0  0  0  0
   -5.1591  -11.6650   17.5100 H   0  0  0  0  0  0  0  0  0  0  0  0
   -7.2472  -10.2654   17.0442 H   0  0  0  0  0  0  0  0  0  0  0  0
   -6.9677   -8.5096   20.7519 H   0  0  0  0  0  0  0  0  0  0  0  0
   -5.8893  -10.3271   22.4610 H   0  0  0  0  0  0  0  0  0  0  0  0
   -4.4028  -11.0138   21.9654 H   0  0  0  0  0  0  0  0  0  0  0  0
   -3.6192   -8.4648   22.0342 H   0  0  0  0  0  0  0  0  0  0  0  0
   -3.9227  -10.6215   23.9091 H   0  0  0  0  0  0  0  0  0  0  0  0
   -2.6423   -9.9728   23.5064 H   0  0  0  0  0  0  0  0  0  0  0  0
   -3.6846   -7.5452   27.1474 H   0  0  0  0  0  0  0  0  0  0  0  0
   -2.1178   -6.3810   28.6349 H   0  0  0  0  0  0  0  0  0  0  0  0
   -1.1827   -7.9086   30.9761 H   0  0  0  0  0  0  0  0  0  0  0  0
   -2.0866  -10.9127   26.9218 H   0  0  0  0  0  0  0  0  0  0  0  0
    1.8785   -7.5460   27.0529 H   0  0  0  0  0  0  0  0  0  0  0  0
    2.8079   -8.7933   27.4507 H   0  0  0  0  0  0  0  0  0  0  0  0
    3.7949   -6.6277   27.6786 H   0  0  0  0  0  0  0  0  0  0  0  0
    3.7686   -7.1678   29.2854 H   0  0  0  0  0  0  0  0  0  0  0  0
    2.0855   -5.0381   27.9726 H   0  0  0  0  0  0  0  0  0  0  0  0
    3.2612   -4.8901   29.2305 H   0  0  0  0  0  0  0  0  0  0  0  0
    1.5859   -4.6910   30.6324 H   0  0  0  0  0  0  0  0  0  0  0  0
    0.4056   -5.1993   29.4812 H   0  0  0  0  0  0  0  0  0  0  0  0
    0.3427   -6.4983   31.4998 H   0  0  0  0  0  0  0  0  0  0  0  0
    1.9755   -6.9472   31.4109 H   0  0  0  0  0  0  0  0  0  0  0  0
   -4.2117  -11.6265   19.7056 H   0  0  0  0  0  0  0  0  0  0  0  0
  1  2  2  0
  2  3  1  0
  3  4  2  0
  4  5  1  0
  5  6  1  0
  6  7  1  0
  7  8  1  0
  8  9  1  0
  9 10  2  0
 10 11  1  0
 11 12  2  0
 12 13  1  0
 13 14  1  0
 14 15  2  0
 15 16  1  0
 16 17  2  0
 15 18  1  0
 18 19  1  0
 19 20  1  0
 20 21  1  0
 21 22  1  0
  5 23  2  0
 23  1  1  0
 17  9  1  0
 16 12  1  0
 22 14  1  0
  1 24  1  0
  2 25  1  0
  4 26  1  0
  6 27  1  0
  6 28  1  0
  7 29  1  0
  8 30  1  0
  8 31  1  0
 10 32  1  0
 11 33  1  0
 13 34  1  0
 17 35  1  0
 18 36  1  0
 18 37  1  0
 19 38  1  0
 19 39  1  0
 20 40  1  0
 20 41  1  0
 21 42  1  0
 21 43  1  0
 22 44  1  0
 22 45  1  0
 23 46  1  0
M  END
>  <Energy>  (633) 
538.64943404923645

>  <compound_id>  (633) 
57357

>  <target_id>  (633) 
1

>  <reference_id>  (633) 
48

>  <inspiration_ids>  (633) 
[48, 40]

>  <energy_score>  (633) 
469.9988788725039

>  <distance_score>  (633) 
12.942451730659311

>  <path>  (633) 
/opt/xchem-fragalysis-2/maxwin/BulkDock/SCRATCH/511021/C57357-P48/C57357-P48.minimised.mol

>  <scratch_subdir>  (633) 
/opt/xchem-fragalysis-2/maxwin/BulkDock/SCRATCH/511021/C57357-P48

>  <fragmenstein_runtime>  (633) 
12.73118782043457

>  <fragmenstein_outcome>  (633) 
too moved

>  <fragmenstein_mode>  (633) 
expansion

>  <fragmenstein_error>  (633) 


$$$$
C57357-P40
     RDKit          3D

 46 49  0  0  0  0  0  0  0  0999 V2000
  -12.4374  -19.1433   18.5443 C   0  0  0  0  0  0  0  0  0  0  0  0
  -13.2264  -19.3464   17.5576 C   0  0  0  0  0  0  0  0  0  0  0  0
  -12.4199  -18.4522   16.8690 N   0  0  0  0  0  0  0  0  0  0  0  0
  -10.9431  -17.6479   17.8862 C   0  0  0  0  0  0  0  0  0  0  0  0
  -11.0368  -16.8686   19.0424 C   0  0  0  0  0  0  0  0  0  0  0  0
   -9.7326  -15.3685   19.2619 C   0  0  0  0  0  0  0  0  0  0  0  0
   -9.5546  -13.4416   19.5670 N   0  0  0  0  0  0  0  0  0  0  0  0
  -10.5581  -12.4397   20.6742 C   0  0  0  0  0  0  0  0  0  0  0  0
  -10.2545  -11.2008   21.7384 C   0  0  0  0  0  0  0  0  0  0  0  0
  -10.1086   -9.8692   21.2691 C   0  0  0  0  0  0  0  0  0  0  0  0
   -9.5466   -8.8284   22.0480 C   0  0  0  0  0  0  0  0  0  0  0  0
   -9.1990   -9.1064   23.3720 C   0  0  0  0  0  0  0  0  0  0  0  0
   -8.6858   -8.2813   24.3487 N   0  0  0  0  0  0  0  0  0  0  0  0
   -8.7252   -8.9172   25.5643 C   0  0  0  0  0  0  0  0  0  0  0  0
   -9.1022  -10.2350   25.3385 C   0  0  0  0  0  0  0  0  0  0  0  0
   -9.4435  -10.3520   23.9465 C   0  0  0  0  0  0  0  0  0  0  0  0
  -10.0157  -11.3826   23.1259 C   0  0  0  0  0  0  0  0  0  0  0  0
   -9.2784  -11.2892   26.3919 C   0  0  0  0  0  0  0  0  0  0  0  0
  -10.0278  -10.7629   27.6180 C   0  0  0  0  0  0  0  0  0  0  0  0
   -9.1739   -9.9472   28.5951 C   0  0  0  0  0  0  0  0  0  0  0  0
   -8.0677   -9.0785   27.9920 C   0  0  0  0  0  0  0  0  0  0  0  0
   -8.5031   -8.1752   26.8440 C   0  0  0  0  0  0  0  0  0  0  0  0
  -11.3544  -17.7160   18.2008 C   0  0  0  0  0  0  0  0  0  0  0  0
  -11.9960  -19.8351   19.2207 H   0  0  0  0  0  0  0  0  0  0  0  0
  -13.8859  -20.1118   17.2148 H   0  0  0  0  0  0  0  0  0  0  0  0
   -9.8231  -18.2701   17.4260 H   0  0  0  0  0  0  0  0  0  0  0  0
  -10.5213  -14.7271   19.0259 H   0  0  0  0  0  0  0  0  0  0  0  0
   -8.9959  -15.6199   18.5034 H   0  0  0  0  0  0  0  0  0  0  0  0
   -8.6548  -13.3719   20.0289 H   0  0  0  0  0  0  0  0  0  0  0  0
  -11.0179  -11.8327   19.8868 H   0  0  0  0  0  0  0  0  0  0  0  0
  -11.3231  -13.0158   21.2031 H   0  0  0  0  0  0  0  0  0  0  0  0
  -10.3483   -9.6514   20.2260 H   0  0  0  0  0  0  0  0  0  0  0  0
   -9.4095   -7.8398   21.6189 H   0  0  0  0  0  0  0  0  0  0  0  0
   -8.4909   -7.2991   24.2113 H   0  0  0  0  0  0  0  0  0  0  0  0
  -10.3032  -12.3099   23.6005 H   0  0  0  0  0  0  0  0  0  0  0  0
   -8.3024  -11.7002   26.6752 H   0  0  0  0  0  0  0  0  0  0  0  0
   -9.8565  -12.1216   25.9734 H   0  0  0  0  0  0  0  0  0  0  0  0
  -10.4471  -11.6132   28.1707 H   0  0  0  0  0  0  0  0  0  0  0  0
  -10.8866  -10.1580   27.2985 H   0  0  0  0  0  0  0  0  0  0  0  0
   -8.7003  -10.6398   29.3031 H   0  0  0  0  0  0  0  0  0  0  0  0
   -9.8423   -9.3176   29.1957 H   0  0  0  0  0  0  0  0  0  0  0  0
   -7.6545   -8.4546   28.7943 H   0  0  0  0  0  0  0  0  0  0  0  0
   -7.2565   -9.7291   27.6569 H   0  0  0  0  0  0  0  0  0  0  0  0
   -7.7296   -7.4160   26.6826 H   0  0  0  0  0  0  0  0  0  0  0  0
   -9.4201   -7.6386   27.1160 H   0  0  0  0  0  0  0  0  0  0  0  0
  -11.6288  -17.1226   16.7192 H   0  0  0  0  0  0  0  0  0  0  0  0
  1  2  2  0
  2  3  1  0
  3  4  2  0
  4  5  1  0
  5  6  1  0
  6  7  1  0
  7  8  1  0
  8  9  1  0
  9 10  2  0
 10 11  1  0
 11 12  2  0
 12 13  1  0
 13 14  1  0
 14 15  2  0
 15 16  1  0
 16 17  2  0
 15 18  1  0
 18 19  1  0
 19 20  1  0
 20 21  1  0
 21 22  1  0
  5 23  2  0
 23  1  1  0
 17  9  1  0
 16 12  1  0
 22 14  1  0
  1 24  1  0
  2 25  1  0
  4 26  1  0
  6 27  1  0
  6 28  1  0
  7 29  1  0
  8 30  1  0
  8 31  1  0
 10 32  1  0
 11 33  1  0
 13 34  1  0
 17 35  1  0
 18 36  1  0
 18 37  1  0
 19 38  1  0
 19 39  1  0
 20 40  1  0
 20 41  1  0
 21 42  1  0
 21 43  1  0
 22 44  1  0
 22 45  1  0
 23 46  1  0
M  END
>  <Energy>  (634) 
1062.0763760486116

>  <compound_id>  (634) 
57357

>  <target_id>  (634) 
1

>  <reference_id>  (634) 
40

>  <inspiration_ids>  (634) 
[48, 40]

>  <energy_score>  (634) 
993.4258208718753

>  <distance_score>  (634) 
13.271800814698418

>  <path>  (634) 
/opt/xchem-fragalysis-2/maxwin/BulkDock/SCRATCH/511021/C57357-P40/C57357-P40.minimised.mol

>  <scratch_subdir>  (634) 
/opt/xchem-fragalysis-2/maxwin/BulkDock/SCRATCH/511021/C57357-P40

>  <fragmenstein_runtime>  (634) 
20.243632793426514

>  <fragmenstein_outcome>  (634) 
too moved

>  <fragmenstein_mode>  (634) 
expansion

>  <fragmenstein_error>  (634) 


$$$$
C38430-P68
     RDKit          3D

 38 40  0  0  0  0  0  0  0  0999 V2000
   -7.6754  -17.8858   23.0395 C   0  0  0  0  0  0  0  0  0  0  0  0
   -6.5554  -16.9505   23.2520 N   0  0  0  0  0  0  0  0  0  0  0  0
   -6.1031  -18.0829   24.2587 C   0  0  0  0  0  0  0  0  0  0  0  0
   -5.2201  -19.2514   23.6864 C   0  0  0  0  0  0  0  0  0  0  0  0
   -5.3581  -20.6626   24.1400 N   0  0  0  0  0  0  0  0  0  0  0  0
   -6.5277  -21.4323   24.5128 C   0  0  0  0  0  0  0  0  0  0  0  0
   -7.6748  -21.1036   24.6282 O   0  0  0  0  0  0  0  0  0  0  0  0
   -6.2728  -22.9677   24.6931 C   0  0  0  0  0  0  0  0  0  0  0  0
   -5.2752  -23.6545   23.9788 C   0  0  0  0  0  0  0  0  0  0  0  0
   -5.1931  -25.0668   23.9361 C   0  0  0  0  0  0  0  0  0  0  0  0
   -6.1283  -25.8188   24.6570 C   0  0  0  0  0  0  0  0  0  0  0  0
   -6.2806  -27.5286   24.8023 S   0  0  0  0  0  0  0  0  0  0  0  0
   -7.5675  -27.2997   25.9061 C   0  0  0  0  0  0  0  0  0  0  0  0
   -7.9574  -26.0610   26.1012 N   0  0  0  0  0  0  0  0  0  0  0  0
   -7.1273  -25.1940   25.4061 C   0  0  0  0  0  0  0  0  0  0  0  0
   -7.2042  -23.7680   25.3987 C   0  0  0  0  0  0  0  0  0  0  0  0
   -7.0640  -15.6040   23.4998 C   0  0  0  0  0  0  0  0  0  0  0  0
   -7.3478  -15.0566   24.5344 O   0  0  0  0  0  0  0  0  0  0  0  0
   -7.3690  -14.7863   22.2054 C   0  0  0  0  0  0  0  0  0  0  0  0
   -6.9278  -14.9665   20.8543 C   0  0  0  0  0  0  0  0  0  0  0  0
   -7.4892  -13.9524   20.1022 C   0  0  0  0  0  0  0  0  0  0  0  0
   -8.2147  -13.2119   20.9781 N   0  0  0  0  0  0  0  0  0  0  0  0
   -8.1778  -13.6883   22.2342 N   0  0  0  0  0  0  0  0  0  0  0  0
   -7.4165  -18.8666   22.6254 H   0  0  0  0  0  0  0  0  0  0  0  0
   -8.2467  -17.4134   22.2457 H   0  0  0  0  0  0  0  0  0  0  0  0
   -8.3960  -17.9231   23.8711 H   0  0  0  0  0  0  0  0  0  0  0  0
   -6.8554  -18.4012   24.9999 H   0  0  0  0  0  0  0  0  0  0  0  0
   -5.4171  -17.5100   24.9030 H   0  0  0  0  0  0  0  0  0  0  0  0
   -5.3142  -19.2898   22.5956 H   0  0  0  0  0  0  0  0  0  0  0  0
   -4.1691  -19.0001   23.8760 H   0  0  0  0  0  0  0  0  0  0  0  0
   -4.5367  -21.2474   24.2257 H   0  0  0  0  0  0  0  0  0  0  0  0
   -4.5659  -23.1107   23.3575 H   0  0  0  0  0  0  0  0  0  0  0  0
   -4.4224  -25.5559   23.3456 H   0  0  0  0  0  0  0  0  0  0  0  0
   -8.0430  -28.1199   26.4246 H   0  0  0  0  0  0  0  0  0  0  0  0
   -8.0155  -23.2951   25.9474 H   0  0  0  0  0  0  0  0  0  0  0  0
   -6.2733  -15.7481   20.4936 H   0  0  0  0  0  0  0  0  0  0  0  0
   -7.4218  -13.7033   19.0532 H   0  0  0  0  0  0  0  0  0  0  0  0
   -8.7583  -12.3737   20.8009 H   0  0  0  0  0  0  0  0  0  0  0  0
  1  2  1  0
  2  3  1  0
  3  4  1  0
  4  5  1  0
  5  6  1  0
  6  7  2  0
  6  8  1  0
  8  9  2  0
  9 10  1  0
 10 11  2  0
 11 12  1  0
 12 13  1  0
 13 14  2  0
 14 15  1  0
 15 16  2  0
  2 17  1  0
 17 18  2  0
 17 19  1  0
 19 20  1  0
 20 21  2  0
 21 22  1  0
 22 23  1  0
 16  8  1  0
 23 19  2  0
 15 11  1  0
  1 24  1  0
  1 25  1  0
  1 26  1  0
  3 27  1  0
  3 28  1  0
  4 29  1  0
  4 30  1  0
  5 31  1  0
  9 32  1  0
 10 33  1  0
 13 34  1  0
 16 35  1  0
 20 36  1  0
 21 37  1  0
 22 38  1  0
M  END
>  <Energy>  (635) 
154.0248245855426

>  <compound_id>  (635) 
38430

>  <target_id>  (635) 
1

>  <reference_id>  (635) 
68

>  <inspiration_ids>  (635) 
[68, 127]

>  <energy_score>  (635) 
44.16082236748446

>  <distance_score>  (635) 
18.836088330067728

>  <path>  (635) 
/opt/xchem-fragalysis-2/maxwin/BulkDock/SCRATCH/511021/C38430-P68/C38430-P68.minimised.mol

>  <scratch_subdir>  (635) 
/opt/xchem-fragalysis-2/maxwin/BulkDock/SCRATCH/511021/C38430-P68

>  <fragmenstein_runtime>  (635) 
25.438372135162354

>  <fragmenstein_outcome>  (635) 
too moved

>  <fragmenstein_mode>  (635) 
expansion

>  <fragmenstein_error>  (635) 


$$$$
C38430-P127
     RDKit          3D

 38 40  0  0  0  0  0  0  0  0999 V2000
   -8.8456  -21.4903   11.4647 C   0  0  0  0  0  0  0  0  0  0  0  0
  -10.2993  -21.3442   11.7643 N   0  0  0  0  0  0  0  0  0  0  0  0
  -10.0933  -22.8081   12.3433 C   0  0  0  0  0  0  0  0  0  0  0  0
   -9.6435  -24.1281   11.5973 C   0  0  0  0  0  0  0  0  0  0  0  0
   -9.7166  -25.4032   12.3896 N   0  0  0  0  0  0  0  0  0  0  0  0
   -8.9318  -25.8679   13.5194 C   0  0  0  0  0  0  0  0  0  0  0  0
   -8.0803  -25.3178   14.1558 O   0  0  0  0  0  0  0  0  0  0  0  0
   -9.1600  -27.3385   13.9781 C   0  0  0  0  0  0  0  0  0  0  0  0
  -10.3578  -28.0436   13.8290 C   0  0  0  0  0  0  0  0  0  0  0  0
  -10.5006  -29.3861   14.2708 C   0  0  0  0  0  0  0  0  0  0  0  0
   -9.4191  -30.0313   14.9021 C   0  0  0  0  0  0  0  0  0  0  0  0
   -9.2629  -31.6644   15.4535 S   0  0  0  0  0  0  0  0  0  0  0  0
   -7.7142  -31.2943   16.0925 C   0  0  0  0  0  0  0  0  0  0  0  0
   -7.2800  -30.0737   15.8636 N   0  0  0  0  0  0  0  0  0  0  0  0
   -8.2282  -29.3493   15.1505 C   0  0  0  0  0  0  0  0  0  0  0  0
   -8.1096  -28.0110   14.6707 C   0  0  0  0  0  0  0  0  0  0  0  0
  -11.0059  -20.8834   10.5889 C   0  0  0  0  0  0  0  0  0  0  0  0
  -11.5388  -21.5046    9.7059 O   0  0  0  0  0  0  0  0  0  0  0  0
  -11.1570  -19.3289   10.5671 C   0  0  0  0  0  0  0  0  0  0  0  0
  -11.2123  -18.3922   11.6570 C   0  0  0  0  0  0  0  0  0  0  0  0
  -11.4210  -17.1392   11.1217 C   0  0  0  0  0  0  0  0  0  0  0  0
  -11.4941  -17.3396    9.7806 N   0  0  0  0  0  0  0  0  0  0  0  0
  -11.3395  -18.6284    9.4163 N   0  0  0  0  0  0  0  0  0  0  0  0
   -8.1860  -21.7089   12.3162 H   0  0  0  0  0  0  0  0  0  0  0  0
   -8.5201  -20.4873   11.1486 H   0  0  0  0  0  0  0  0  0  0  0  0
   -8.6539  -22.0917   10.5666 H   0  0  0  0  0  0  0  0  0  0  0  0
  -11.1355  -23.0500   12.5868 H   0  0  0  0  0  0  0  0  0  0  0  0
   -9.6086  -22.7309   13.3305 H   0  0  0  0  0  0  0  0  0  0  0  0
  -10.2594  -24.2739   10.7042 H   0  0  0  0  0  0  0  0  0  0  0  0
   -8.5956  -24.0595   11.2912 H   0  0  0  0  0  0  0  0  0  0  0  0
  -10.2870  -26.1649   12.0481 H   0  0  0  0  0  0  0  0  0  0  0  0
  -11.2172  -27.5723   13.3576 H   0  0  0  0  0  0  0  0  0  0  0  0
  -11.4312  -29.9196   14.0919 H   0  0  0  0  0  0  0  0  0  0  0  0
   -7.1334  -32.0218   16.6460 H   0  0  0  0  0  0  0  0  0  0  0  0
   -7.1689  -27.4919   14.8524 H   0  0  0  0  0  0  0  0  0  0  0  0
  -11.1382  -18.6296   12.7043 H   0  0  0  0  0  0  0  0  0  0  0  0
  -11.5323  -16.1615   11.5668 H   0  0  0  0  0  0  0  0  0  0  0  0
  -11.6492  -16.6544    9.0482 H   0  0  0  0  0  0  0  0  0  0  0  0
  1  2  1  0
  2  3  1  0
  3  4  1  0
  4  5  1  0
  5  6  1  0
  6  7  2  0
  6  8  1  0
  8  9  2  0
  9 10  1  0
 10 11  2  0
 11 12  1  0
 12 13  1  0
 13 14  2  0
 14 15  1  0
 15 16  2  0
  2 17  1  0
 17 18  2  0
 17 19  1  0
 19 20  1  0
 20 21  2  0
 21 22  1  0
 22 23  1  0
 16  8  1  0
 23 19  2  0
 15 11  1  0
  1 24  1  0
  1 25  1  0
  1 26  1  0
  3 27  1  0
  3 28  1  0
  4 29  1  0
  4 30  1  0
  5 31  1  0
  9 32  1  0
 10 33  1  0
 13 34  1  0
 16 35  1  0
 20 36  1  0
 21 37  1  0
 22 38  1  0
M  END
>  <Energy>  (636) 
153.42709072913769

>  <compound_id>  (636) 
38430

>  <target_id>  (636) 
1

>  <reference_id>  (636) 
127

>  <inspiration_ids>  (636) 
[68, 127]

>  <energy_score>  (636) 
43.56308851108298

>  <distance_score>  (636) 
18.03603785513605

>  <path>  (636) 
/opt/xchem-fragalysis-2/maxwin/BulkDock/SCRATCH/511021/C38430-P127/C38430-P127.minimised.mol

>  <scratch_subdir>  (636) 
/opt/xchem-fragalysis-2/maxwin/BulkDock/SCRATCH/511021/C38430-P127

>  <fragmenstein_runtime>  (636) 
17.966212034225464

>  <fragmenstein_outcome>  (636) 
too moved

>  <fragmenstein_mode>  (636) 
expansion

>  <fragmenstein_error>  (636) 


$$$$
C38431-P68
     RDKit          3D

 39 41  0  0  0  0  0  0  0  0999 V2000
  -19.5906  -16.5278   22.2177 C   0  0  0  0  0  0  0  0  0  0  0  0
  -19.5670  -16.9284   20.7506 C   0  0  0  0  0  0  0  0  0  0  0  0
  -19.2991  -15.7266   19.7794 N   0  0  0  0  0  0  0  0  0  0  0  0
  -18.0801  -15.2569   19.1720 C   0  0  0  0  0  0  0  0  0  0  0  0
  -17.0263  -15.6355   19.3518 O   0  0  0  0  0  0  0  0  0  0  0  0
  -18.4269  -14.1242   18.0128 N   0  0  0  0  0  0  0  0  0  0  0  0
  -18.7720  -14.7665   16.7252 C   0  0  0  0  0  0  0  0  0  0  0  0
  -17.2259  -13.0842   16.8271 C   0  0  0  0  0  0  0  0  0  0  0  0
  -16.9263  -10.7723   16.2190 C   0  0  0  0  0  0  0  0  0  0  0  0
  -15.8415   -9.6296   15.7679 C   0  0  0  0  0  0  0  0  0  0  0  0
  -16.4685   -8.3425   16.0328 C   0  0  0  0  0  0  0  0  0  0  0  0
  -17.2225   -8.5095   17.1026 N   0  0  0  0  0  0  0  0  0  0  0  0
  -17.9110   -9.5814   16.8794 N   0  0  0  0  0  0  0  0  0  0  0  0
  -18.4918  -18.2625   20.7051 C   0  0  0  0  0  0  0  0  0  0  0  0
  -17.1975  -18.1732   21.2680 C   0  0  0  0  0  0  0  0  0  0  0  0
  -16.3142  -19.2913   21.4376 C   0  0  0  0  0  0  0  0  0  0  0  0
  -16.6850  -20.5937   21.0453 C   0  0  0  0  0  0  0  0  0  0  0  0
  -15.9193  -21.7603   21.1726 N   0  0  0  0  0  0  0  0  0  0  0  0
  -16.5846  -22.7771   20.6775 C   0  0  0  0  0  0  0  0  0  0  0  0
  -18.1470  -22.4165   20.0592 S   0  0  0  0  0  0  0  0  0  0  0  0
  -17.9530  -20.7293   20.4668 C   0  0  0  0  0  0  0  0  0  0  0  0
  -18.8564  -19.5901   20.3004 C   0  0  0  0  0  0  0  0  0  0  0  0
  -18.6481  -16.0669   22.5309 H   0  0  0  0  0  0  0  0  0  0  0  0
  -20.3748  -15.7813   22.3859 H   0  0  0  0  0  0  0  0  0  0  0  0
  -19.7954  -17.3816   22.8722 H   0  0  0  0  0  0  0  0  0  0  0  0
  -20.5393  -17.3321   20.4461 H   0  0  0  0  0  0  0  0  0  0  0  0
  -20.0792  -15.2465   19.3530 H   0  0  0  0  0  0  0  0  0  0  0  0
  -19.6514  -14.1297   16.4972 H   0  0  0  0  0  0  0  0  0  0  0  0
  -19.4079  -15.6505   16.8611 H   0  0  0  0  0  0  0  0  0  0  0  0
  -18.3485  -14.6938   15.7177 H   0  0  0  0  0  0  0  0  0  0  0  0
  -16.6183  -13.4314   17.7834 H   0  0  0  0  0  0  0  0  0  0  0  0
  -16.8337  -13.9488   16.1478 H   0  0  0  0  0  0  0  0  0  0  0  0
  -14.9730   -9.8392   15.1816 H   0  0  0  0  0  0  0  0  0  0  0  0
  -16.4800   -7.3165   15.7266 H   0  0  0  0  0  0  0  0  0  0  0  0
  -17.6056   -7.8136   17.7301 H   0  0  0  0  0  0  0  0  0  0  0  0
  -16.8302  -17.1975   21.5907 H   0  0  0  0  0  0  0  0  0  0  0  0
  -15.3315  -19.1282   21.8730 H   0  0  0  0  0  0  0  0  0  0  0  0
  -16.1811  -23.7809   20.6562 H   0  0  0  0  0  0  0  0  0  0  0  0
  -19.8414  -19.7697   19.8754 H   0  0  0  0  0  0  0  0  0  0  0  0
  1  2  1  0
  2  3  1  0
  3  4  1  0
  4  5  2  0
  4  6  1  0
  6  7  1  0
  6  8  1  0
  8  9  1  0
  9 10  1  0
 10 11  2  0
 11 12  1  0
 12 13  1  0
  2 14  1  0
 14 15  2  0
 15 16  1  0
 16 17  2  0
 17 18  1  0
 18 19  2  0
 19 20  1  0
 20 21  1  0
 21 22  2  0
 13  9  2  0
 22 14  1  0
 21 17  1  0
  1 23  1  0
  1 24  1  0
  1 25  1  0
  2 26  1  0
  3 27  1  0
  7 28  1  0
  7 29  1  0
  7 30  1  0
  8 31  1  0
  8 32  1  0
 10 33  1  0
 11 34  1  0
 12 35  1  0
 15 36  1  0
 16 37  1  0
 19 38  1  0
 22 39  1  0
M  END
>  <Energy>  (637) 
672.30394584328587

>  <compound_id>  (637) 
38431

>  <target_id>  (637) 
1

>  <reference_id>  (637) 
68

>  <inspiration_ids>  (637) 
[68, 127]

>  <energy_score>  (637) 
648.1557624219006

>  <distance_score>  (637) 
16.557299373862403

>  <path>  (637) 
/opt/xchem-fragalysis-2/maxwin/BulkDock/SCRATCH/511021/C38431-P68/C38431-P68.minimised.mol

>  <scratch_subdir>  (637) 
/opt/xchem-fragalysis-2/maxwin/BulkDock/SCRATCH/511021/C38431-P68

>  <fragmenstein_runtime>  (637) 
18.761049509048462

>  <fragmenstein_outcome>  (637) 
too moved

>  <fragmenstein_mode>  (637) 
expansion

>  <fragmenstein_error>  (637) 


$$$$
C38431-P127
     RDKit          3D

 39 41  0  0  0  0  0  0  0  0999 V2000
  -16.3204  -23.5579   12.5706 C   0  0  0  0  0  0  0  0  0  0  0  0
  -15.5686  -22.8786   13.6976 C   0  0  0  0  0  0  0  0  0  0  0  0
  -14.6279  -21.8020   13.2250 N   0  0  0  0  0  0  0  0  0  0  0  0
  -13.9805  -20.6755   13.9676 C   0  0  0  0  0  0  0  0  0  0  0  0
  -14.1398  -20.3512   15.0509 O   0  0  0  0  0  0  0  0  0  0  0  0
  -12.6295  -19.8092   13.0274 N   0  0  0  0  0  0  0  0  0  0  0  0
  -10.9274  -20.5558   13.0612 C   0  0  0  0  0  0  0  0  0  0  0  0
  -11.4851  -18.3065   13.5177 C   0  0  0  0  0  0  0  0  0  0  0  0
  -11.2235  -16.7162   12.9682 C   0  0  0  0  0  0  0  0  0  0  0  0
  -11.9641  -15.1725   13.3571 C   0  0  0  0  0  0  0  0  0  0  0  0
  -10.9103  -14.3283   13.1631 C   0  0  0  0  0  0  0  0  0  0  0  0
  -10.6904  -15.0284   12.1097 N   0  0  0  0  0  0  0  0  0  0  0  0
  -10.1059  -16.2634   12.5763 N   0  0  0  0  0  0  0  0  0  0  0  0
  -14.8747  -24.0823   14.5664 C   0  0  0  0  0  0  0  0  0  0  0  0
  -15.1257  -24.2089   15.9495 C   0  0  0  0  0  0  0  0  0  0  0  0
  -14.6832  -25.3258   16.7208 C   0  0  0  0  0  0  0  0  0  0  0  0
  -13.9588  -26.3815   16.1253 C   0  0  0  0  0  0  0  0  0  0  0  0
  -13.5447  -27.5683   16.7306 N   0  0  0  0  0  0  0  0  0  0  0  0
  -12.8475  -28.2819   15.8794 C   0  0  0  0  0  0  0  0  0  0  0  0
  -12.6899  -27.6253   14.3057 S   0  0  0  0  0  0  0  0  0  0  0  0
  -13.6441  -26.2489   14.7706 C   0  0  0  0  0  0  0  0  0  0  0  0
  -14.0935  -25.1267   13.9894 C   0  0  0  0  0  0  0  0  0  0  0  0
  -16.9254  -22.8235   12.0270 H   0  0  0  0  0  0  0  0  0  0  0  0
  -15.6431  -24.0092   11.8376 H   0  0  0  0  0  0  0  0  0  0  0  0
  -16.9954  -24.3370   12.9413 H   0  0  0  0  0  0  0  0  0  0  0  0
  -16.2831  -22.3914   14.3688 H   0  0  0  0  0  0  0  0  0  0  0  0
  -14.2195  -21.8779   12.3331 H   0  0  0  0  0  0  0  0  0  0  0  0
  -11.0157  -21.5674   12.6021 H   0  0  0  0  0  0  0  0  0  0  0  0
  -10.3808  -20.7244   14.0042 H   0  0  0  0  0  0  0  0  0  0  0  0
  -10.2930  -20.0904   12.3057 H   0  0  0  0  0  0  0  0  0  0  0  0
  -10.7522  -18.5299   14.2964 H   0  0  0  0  0  0  0  0  0  0  0  0
  -12.2990  -17.8539   14.0914 H   0  0  0  0  0  0  0  0  0  0  0  0
  -12.7971  -15.1467   14.0372 H   0  0  0  0  0  0  0  0  0  0  0  0
  -10.2386  -13.6750   13.7109 H   0  0  0  0  0  0  0  0  0  0  0  0
  -11.3185  -15.0419   11.3170 H   0  0  0  0  0  0  0  0  0  0  0  0
  -15.6960  -23.4322   16.4588 H   0  0  0  0  0  0  0  0  0  0  0  0
  -14.9142  -25.3776   17.7806 H   0  0  0  0  0  0  0  0  0  0  0  0
  -12.4048  -29.2320   16.1472 H   0  0  0  0  0  0  0  0  0  0  0  0
  -13.8412  -25.0934   12.9325 H   0  0  0  0  0  0  0  0  0  0  0  0
  1  2  1  0
  2  3  1  0
  3  4  1  0
  4  5  2  0
  4  6  1  0
  6  7  1  0
  6  8  1  0
  8  9  1  0
  9 10  1  0
 10 11  2  0
 11 12  1  0
 12 13  1  0
  2 14  1  0
 14 15  2  0
 15 16  1  0
 16 17  2  0
 17 18  1  0
 18 19  2  0
 19 20  1  0
 20 21  1  0
 21 22  2  0
 13  9  2  0
 22 14  1  0
 21 17  1  0
  1 23  1  0
  1 24  1  0
  1 25  1  0
  2 26  1  0
  3 27  1  0
  7 28  1  0
  7 29  1  0
  7 30  1  0
  8 31  1  0
  8 32  1  0
 10 33  1  0
 11 34  1  0
 12 35  1  0
 15 36  1  0
 16 37  1  0
 19 38  1  0
 22 39  1  0
M  END
>  <Energy>  (638) 
350.80189865197684

>  <compound_id>  (638) 
38431

>  <target_id>  (638) 
1

>  <reference_id>  (638) 
127

>  <inspiration_ids>  (638) 
[68, 127]

>  <energy_score>  (638) 
326.6537152306

>  <distance_score>  (638) 
14.917684599448256

>  <path>  (638) 
/opt/xchem-fragalysis-2/maxwin/BulkDock/SCRATCH/511021/C38431-P127/C38431-P127.minimised.mol

>  <scratch_subdir>  (638) 
/opt/xchem-fragalysis-2/maxwin/BulkDock/SCRATCH/511021/C38431-P127

>  <fragmenstein_runtime>  (638) 
16.676268815994263

>  <fragmenstein_outcome>  (638) 
too moved

>  <fragmenstein_mode>  (638) 
expansion

>  <fragmenstein_error>  (638) 


$$$$
C38434-P68
     RDKit          3D

 35 38  0  0  0  0  0  0  0  0999 V2000
   -7.1347  -23.5857   17.9828 O   0  0  0  0  0  0  0  0  0  0  0  0
   -7.3636  -22.8648   18.9275 C   0  0  0  0  0  0  0  0  0  0  0  0
   -8.1573  -23.4581   20.1540 C   0  0  0  0  0  0  0  0  0  0  0  0
   -8.1970  -25.0159   20.3918 C   0  0  0  0  0  0  0  0  0  0  0  0
   -9.7893  -25.7979   20.8936 C   0  0  0  0  0  0  0  0  0  0  0  0
   -9.9353  -27.6859   21.3916 C   0  0  0  0  0  0  0  0  0  0  0  0
   -8.2717  -28.8064   21.1878 C   0  0  0  0  0  0  0  0  0  0  0  0
   -7.9003  -30.0591   19.9719 N   0  0  0  0  0  0  0  0  0  0  0  0
   -6.6800  -30.0096   19.3298 C   0  0  0  0  0  0  0  0  0  0  0  0
   -5.4284  -28.7045   19.5337 S   0  0  0  0  0  0  0  0  0  0  0  0
   -6.6165  -27.7154   21.0328 C   0  0  0  0  0  0  0  0  0  0  0  0
   -6.6296  -25.9582   20.3783 C   0  0  0  0  0  0  0  0  0  0  0  0
   -6.9442  -21.4723   19.1899 N   0  0  0  0  0  0  0  0  0  0  0  0
   -7.9923  -20.4348   18.6288 C   0  0  0  0  0  0  0  0  0  0  0  0
   -6.9180  -19.3574   18.7408 C   0  0  0  0  0  0  0  0  0  0  0  0
   -6.9290  -18.0679   17.7473 C   0  0  0  0  0  0  0  0  0  0  0  0
   -6.6140  -16.7450   18.1779 C   0  0  0  0  0  0  0  0  0  0  0  0
   -6.5361  -15.9891   17.0303 C   0  0  0  0  0  0  0  0  0  0  0  0
   -6.8758  -16.8320   16.0149 N   0  0  0  0  0  0  0  0  0  0  0  0
   -7.1463  -18.0906   16.4263 N   0  0  0  0  0  0  0  0  0  0  0  0
   -6.0078  -20.5408   18.4069 C   0  0  0  0  0  0  0  0  0  0  0  0
   -9.1941  -23.1237   20.0412 H   0  0  0  0  0  0  0  0  0  0  0  0
   -7.7563  -23.0193   21.0744 H   0  0  0  0  0  0  0  0  0  0  0  0
  -10.5596  -25.0283   20.9282 H   0  0  0  0  0  0  0  0  0  0  0  0
  -10.7059  -28.3434   21.2651 H   0  0  0  0  0  0  0  0  0  0  0  0
   -6.4243  -30.7194   18.5586 H   0  0  0  0  0  0  0  0  0  0  0  0
   -5.6719  -25.5541   20.0653 H   0  0  0  0  0  0  0  0  0  0  0  0
   -8.7973  -20.2930   19.3483 H   0  0  0  0  0  0  0  0  0  0  0  0
   -8.3478  -20.7026   17.6293 H   0  0  0  0  0  0  0  0  0  0  0  0
   -6.7861  -19.0061   19.7751 H   0  0  0  0  0  0  0  0  0  0  0  0
   -6.3928  -16.4183   19.1843 H   0  0  0  0  0  0  0  0  0  0  0  0
   -6.2698  -14.9575   16.8521 H   0  0  0  0  0  0  0  0  0  0  0  0
   -6.9373  -16.6317   15.0221 H   0  0  0  0  0  0  0  0  0  0  0  0
   -5.0142  -20.5024   18.8629 H   0  0  0  0  0  0  0  0  0  0  0  0
   -5.9173  -20.8361   17.3544 H   0  0  0  0  0  0  0  0  0  0  0  0
  1  2  2  0
  2  3  1  0
  3  4  1  0
  4  5  2  0
  5  6  1  0
  6  7  2  0
  7  8  1  0
  8  9  2  0
  9 10  1  0
 10 11  1  0
 11 12  2  0
  2 13  1  0
 13 14  1  0
 14 15  1  0
 15 16  1  0
 16 17  1  0
 17 18  2  0
 18 19  1  0
 19 20  1  0
 15 21  1  0
 12  4  1  0
 21 13  1  0
 11  7  1  0
 20 16  2  0
  3 22  1  0
  3 23  1  0
  5 24  1  0
  6 25  1  0
  9 26  1  0
 12 27  1  0
 14 28  1  0
 14 29  1  0
 15 30  1  0
 17 31  1  0
 18 32  1  0
 19 33  1  0
 21 34  1  0
 21 35  1  0
M  END
>  <Energy>  (639) 
654.61053160899883

>  <compound_id>  (639) 
38434

>  <target_id>  (639) 
1

>  <reference_id>  (639) 
68

>  <inspiration_ids>  (639) 
[68, 127]

>  <energy_score>  (639) 
535.2499702609249

>  <distance_score>  (639) 
14.079619926031832

>  <path>  (639) 
/opt/xchem-fragalysis-2/maxwin/BulkDock/SCRATCH/511021/C38434-P68/C38434-P68.minimised.mol

>  <scratch_subdir>  (639) 
/opt/xchem-fragalysis-2/maxwin/BulkDock/SCRATCH/511021/C38434-P68

>  <fragmenstein_runtime>  (639) 
11.379297971725464

>  <fragmenstein_outcome>  (639) 
too moved

>  <fragmenstein_mode>  (639) 
expansion

>  <fragmenstein_error>  (639) 


$$$$
C38434-P127
     RDKit          3D

 35 38  0  0  0  0  0  0  0  0999 V2000
   -9.5700  -20.2590   23.1225 O   0  0  0  0  0  0  0  0  0  0  0  0
   -9.1416  -20.6246   22.0520 C   0  0  0  0  0  0  0  0  0  0  0  0
   -9.4697  -22.0884   21.5509 C   0  0  0  0  0  0  0  0  0  0  0  0
   -9.6855  -23.2273   22.6065 C   0  0  0  0  0  0  0  0  0  0  0  0
   -8.8383  -23.3794   23.7118 C   0  0  0  0  0  0  0  0  0  0  0  0
   -9.0091  -24.4156   24.6623 C   0  0  0  0  0  0  0  0  0  0  0  0
  -10.0499  -25.3555   24.5258 C   0  0  0  0  0  0  0  0  0  0  0  0
  -10.3188  -26.4306   25.3801 N   0  0  0  0  0  0  0  0  0  0  0  0
  -11.3622  -27.0848   24.9304 C   0  0  0  0  0  0  0  0  0  0  0  0
  -12.0345  -26.5194   23.4746 S   0  0  0  0  0  0  0  0  0  0  0  0
  -10.8751  -25.2429   23.4031 C   0  0  0  0  0  0  0  0  0  0  0  0
  -10.6966  -24.2102   22.4339 C   0  0  0  0  0  0  0  0  0  0  0  0
   -8.2396  -19.9513   21.1110 N   0  0  0  0  0  0  0  0  0  0  0  0
   -9.0537  -19.0653   20.0479 C   0  0  0  0  0  0  0  0  0  0  0  0
   -8.6257  -17.7842   20.7375 C   0  0  0  0  0  0  0  0  0  0  0  0
   -8.1880  -16.4502   19.8991 C   0  0  0  0  0  0  0  0  0  0  0  0
   -7.9727  -16.3258   18.5036 C   0  0  0  0  0  0  0  0  0  0  0  0
   -7.5541  -15.0232   18.3143 C   0  0  0  0  0  0  0  0  0  0  0  0
   -7.6841  -14.4104   19.5228 N   0  0  0  0  0  0  0  0  0  0  0  0
   -7.9407  -15.2803   20.5199 N   0  0  0  0  0  0  0  0  0  0  0  0
   -7.4744  -18.6314   21.2268 C   0  0  0  0  0  0  0  0  0  0  0  0
  -10.3836  -21.9993   20.9506 H   0  0  0  0  0  0  0  0  0  0  0  0
   -8.6635  -22.4232   20.8871 H   0  0  0  0  0  0  0  0  0  0  0  0
   -8.0272  -22.6689   23.8708 H   0  0  0  0  0  0  0  0  0  0  0  0
   -8.3375  -24.4860   25.5130 H   0  0  0  0  0  0  0  0  0  0  0  0
  -11.7834  -27.9317   25.4541 H   0  0  0  0  0  0  0  0  0  0  0  0
  -11.3557  -24.1716   21.5693 H   0  0  0  0  0  0  0  0  0  0  0  0
   -8.6562  -19.2601   19.0451 H   0  0  0  0  0  0  0  0  0  0  0  0
  -10.1264  -19.2816   20.0710 H   0  0  0  0  0  0  0  0  0  0  0  0
   -9.3152  -17.4956   21.5426 H   0  0  0  0  0  0  0  0  0  0  0  0
   -8.0551  -17.0927   17.7468 H   0  0  0  0  0  0  0  0  0  0  0  0
   -7.2241  -14.4812   17.4415 H   0  0  0  0  0  0  0  0  0  0  0  0
   -7.5771  -13.4253   19.7594 H   0  0  0  0  0  0  0  0  0  0  0  0
   -7.1652  -18.4374   22.2593 H   0  0  0  0  0  0  0  0  0  0  0  0
   -6.5788  -18.6583   20.5931 H   0  0  0  0  0  0  0  0  0  0  0  0
  1  2  2  0
  2  3  1  0
  3  4  1  0
  4  5  2  0
  5  6  1  0
  6  7  2  0
  7  8  1  0
  8  9  2  0
  9 10  1  0
 10 11  1  0
 11 12  2  0
  2 13  1  0
 13 14  1  0
 14 15  1  0
 15 16  1  0
 16 17  1  0
 17 18  2  0
 18 19  1  0
 19 20  1  0
 15 21  1  0
 12  4  1  0
 21 13  1  0
 11  7  1  0
 20 16  2  0
  3 22  1  0
  3 23  1  0
  5 24  1  0
  6 25  1  0
  9 26  1  0
 12 27  1  0
 14 28  1  0
 14 29  1  0
 15 30  1  0
 17 31  1  0
 18 32  1  0
 19 33  1  0
 21 34  1  0
 21 35  1  0
M  END
>  <Energy>  (640) 
76.242820831623305

>  <compound_id>  (640) 
38434

>  <target_id>  (640) 
1

>  <reference_id>  (640) 
127

>  <inspiration_ids>  (640) 
[68, 127]

>  <energy_score>  (640) 
-43.11774051643994

>  <distance_score>  (640) 
14.655126784177344

>  <path>  (640) 
/opt/xchem-fragalysis-2/maxwin/BulkDock/SCRATCH/511021/C38434-P127/C38434-P127.minimised.mol

>  <scratch_subdir>  (640) 
/opt/xchem-fragalysis-2/maxwin/BulkDock/SCRATCH/511021/C38434-P127

>  <fragmenstein_runtime>  (640) 
10.27884817123413

>  <fragmenstein_outcome>  (640) 
too moved

>  <fragmenstein_mode>  (640) 
expansion

>  <fragmenstein_error>  (640) 


$$$$
C52819-P82
     RDKit          3D

 39 42  0  0  0  0  0  0  0  0999 V2000
   -0.8960  -21.1305   28.7076 C   0  0  0  0  0  0  0  0  0  0  0  0
   -0.3923  -22.3720   28.0271 C   0  0  0  0  0  0  0  0  0  0  0  0
   -1.9410  -23.5318   27.5485 N   0  0  0  0  0  0  0  0  0  0  0  0
   -3.7726  -23.7913   27.5894 C   0  0  0  0  0  0  0  0  0  0  0  0
   -4.8965  -23.0063   27.1133 N   0  0  0  0  0  0  0  0  0  0  0  0
   -6.4128  -22.9786   27.5281 N   0  0  0  0  0  0  0  0  0  0  0  0
   -6.7359  -23.8696   28.5043 C   0  0  0  0  0  0  0  0  0  0  0  0
   -8.3191  -24.7272   29.0241 C   0  0  0  0  0  0  0  0  0  0  0  0
   -9.5814  -24.6481   28.2724 C   0  0  0  0  0  0  0  0  0  0  0  0
  -10.8521  -25.0178   28.7643 C   0  0  0  0  0  0  0  0  0  0  0  0
  -10.9749  -25.4474   30.0611 C   0  0  0  0  0  0  0  0  0  0  0  0
   -9.8247  -25.4659   30.7964 C   0  0  0  0  0  0  0  0  0  0  0  0
   -8.6038  -25.0722   30.3123 N   0  0  0  0  0  0  0  0  0  0  0  0
   -4.5876  -24.0624   28.9442 S   0  0  0  0  0  0  0  0  0  0  0  0
    1.6700  -22.2700   28.0453 C   0  0  0  0  0  0  0  0  0  0  0  0
    2.9164  -22.7483   27.2007 C   0  0  0  0  0  0  0  0  0  0  0  0
    4.3479  -22.6585   27.7272 C   0  0  0  0  0  0  0  0  0  0  0  0
    4.7917  -22.2434   29.1480 C   0  0  0  0  0  0  0  0  0  0  0  0
    3.8820  -21.9702   30.2153 C   0  0  0  0  0  0  0  0  0  0  0  0
    2.2929  -21.5922   29.6563 C   0  0  0  0  0  0  0  0  0  0  0  0
    4.5366  -21.2699   31.4475 C   0  0  0  0  0  0  0  0  0  0  0  0
    5.6008  -20.2495   30.5818 C   0  0  0  0  0  0  0  0  0  0  0  0
    5.7050  -21.0364   29.2655 O   0  0  0  0  0  0  0  0  0  0  0  0
   -0.2671  -20.5172   29.3392 H   0  0  0  0  0  0  0  0  0  0  0  0
   -1.2597  -20.4620   27.9497 H   0  0  0  0  0  0  0  0  0  0  0  0
   -1.6543  -21.3431   29.4446 H   0  0  0  0  0  0  0  0  0  0  0  0
    0.2907  -23.0252   27.4345 H   0  0  0  0  0  0  0  0  0  0  0  0
   -1.6052  -24.2118   26.8688 H   0  0  0  0  0  0  0  0  0  0  0  0
   -9.6514  -24.1591   27.2994 H   0  0  0  0  0  0  0  0  0  0  0  0
  -11.7341  -24.9020   28.1393 H   0  0  0  0  0  0  0  0  0  0  0  0
  -11.9328  -25.7072   30.4904 H   0  0  0  0  0  0  0  0  0  0  0  0
   -9.8185  -25.7794   31.8374 H   0  0  0  0  0  0  0  0  0  0  0  0
    2.8488  -23.2969   26.2674 H   0  0  0  0  0  0  0  0  0  0  0  0
    5.1261  -22.9075   27.0040 H   0  0  0  0  0  0  0  0  0  0  0  0
    1.7001  -20.8854   30.2669 H   0  0  0  0  0  0  0  0  0  0  0  0
    4.9682  -22.0246   32.0642 H   0  0  0  0  0  0  0  0  0  0  0  0
    3.8038  -20.7293   32.0596 H   0  0  0  0  0  0  0  0  0  0  0  0
    6.6451  -20.0782   30.8773 H   0  0  0  0  0  0  0  0  0  0  0  0
    5.2456  -19.2200   30.4541 H   0  0  0  0  0  0  0  0  0  0  0  0
  1  2  1  0
  2  3  1  0
  3  4  1  0
  4  5  2  0
  5  6  1  0
  6  7  2  0
  7  8  1  0
  8  9  2  0
  9 10  1  0
 10 11  2  0
 11 12  1  0
 12 13  2  0
  7 14  1  0
  2 15  1  0
 15 16  2  0
 16 17  1  0
 17 18  2  0
 18 19  1  0
 19 20  2  0
 19 21  1  0
 21 22  1  0
 22 23  1  0
 14  4  1  0
 20 15  1  0
 13  8  1  0
 23 18  1  0
  1 24  1  0
  1 25  1  0
  1 26  1  0
  2 27  1  0
  3 28  1  0
  9 29  1  0
 10 30  1  0
 11 31  1  0
 12 32  1  0
 16 33  1  0
 17 34  1  0
 20 35  1  0
 21 36  1  0
 21 37  1  0
 22 38  1  0
 22 39  1  0
M  END
>  <Energy>  (641) 
819.9760717695998

>  <compound_id>  (641) 
52819

>  <target_id>  (641) 
1

>  <reference_id>  (641) 
82

>  <inspiration_ids>  (641) 
[82, 89]

>  <energy_score>  (641) 
677.3698184666358

>  <distance_score>  (641) 
2.632115299010945

>  <path>  (641) 
/opt/xchem-fragalysis-2/maxwin/BulkDock/SCRATCH/511021/C52819-P82/C52819-P82.minimised.mol

>  <scratch_subdir>  (641) 
/opt/xchem-fragalysis-2/maxwin/BulkDock/SCRATCH/511021/C52819-P82

>  <fragmenstein_runtime>  (641) 
9.152425765991211

>  <fragmenstein_outcome>  (641) 
too moved

>  <fragmenstein_mode>  (641) 
expansion

>  <fragmenstein_error>  (641) 


$$$$
C52822-P82
     RDKit          3D

 38 41  0  0  0  0  0  0  0  0999 V2000
   -9.9636  -24.6020   28.3782 C   0  0  0  0  0  0  0  0  0  0  0  0
   -9.4357  -23.4835   27.7741 C   0  0  0  0  0  0  0  0  0  0  0  0
   -7.7872  -22.9642   27.8743 C   0  0  0  0  0  0  0  0  0  0  0  0
   -6.7937  -23.8116   28.5895 C   0  0  0  0  0  0  0  0  0  0  0  0
   -4.7637  -23.7295   28.5743 C   0  0  0  0  0  0  0  0  0  0  0  0
   -3.1173  -23.5506   29.6102 N   0  0  0  0  0  0  0  0  0  0  0  0
   -1.2501  -22.9948   28.5828 C   0  0  0  0  0  0  0  0  0  0  0  0
    0.7603  -22.3271   27.9942 C   0  0  0  0  0  0  0  0  0  0  0  0
    2.2718  -22.8349   27.2777 C   0  0  0  0  0  0  0  0  0  0  0  0
    3.9524  -22.7151   27.6672 C   0  0  0  0  0  0  0  0  0  0  0  0
    4.5850  -22.3340   29.0485 C   0  0  0  0  0  0  0  0  0  0  0  0
    3.6259  -21.9870   30.0736 C   0  0  0  0  0  0  0  0  0  0  0  0
    1.9731  -21.5871   29.3718 C   0  0  0  0  0  0  0  0  0  0  0  0
    4.4305  -21.3284   31.3949 C   0  0  0  0  0  0  0  0  0  0  0  0
    5.5320  -20.3385   30.5427 C   0  0  0  0  0  0  0  0  0  0  0  0
    5.5616  -21.2700   29.1886 O   0  0  0  0  0  0  0  0  0  0  0  0
   -4.9685  -23.0746   27.2144 C   0  0  0  0  0  0  0  0  0  0  0  0
   -3.9512  -24.1993   27.4793 C   0  0  0  0  0  0  0  0  0  0  0  0
   -7.5978  -24.7541   29.2373 N   0  0  0  0  0  0  0  0  0  0  0  0
   -9.0161  -25.1501   29.1633 C   0  0  0  0  0  0  0  0  0  0  0  0
  -11.0064  -24.8719   28.3890 H   0  0  0  0  0  0  0  0  0  0  0  0
  -10.2775  -22.8572   27.4608 H   0  0  0  0  0  0  0  0  0  0  0  0
   -7.4988  -22.0352   27.4314 H   0  0  0  0  0  0  0  0  0  0  0  0
   -3.4997  -22.5689   29.8068 H   0  0  0  0  0  0  0  0  0  0  0  0
   -1.2209  -22.0409   29.1759 H   0  0  0  0  0  0  0  0  0  0  0  0
   -0.8317  -23.8860   28.9992 H   0  0  0  0  0  0  0  0  0  0  0  0
    2.2380  -23.6347   26.5024 H   0  0  0  0  0  0  0  0  0  0  0  0
    4.6347  -23.0177   26.8673 H   0  0  0  0  0  0  0  0  0  0  0  0
    1.4694  -20.8795   30.1054 H   0  0  0  0  0  0  0  0  0  0  0  0
    3.7418  -20.7810   32.0496 H   0  0  0  0  0  0  0  0  0  0  0  0
    4.9012  -22.1110   31.9491 H   0  0  0  0  0  0  0  0  0  0  0  0
    5.2293  -19.2943   30.3759 H   0  0  0  0  0  0  0  0  0  0  0  0
    6.5863  -20.1632   30.8116 H   0  0  0  0  0  0  0  0  0  0  0  0
   -5.7391  -23.2710   26.4661 H   0  0  0  0  0  0  0  0  0  0  0  0
   -5.2571  -22.0689   27.4408 H   0  0  0  0  0  0  0  0  0  0  0  0
   -2.8876  -24.0249   27.4885 H   0  0  0  0  0  0  0  0  0  0  0  0
   -3.8247  -25.2662   27.4420 H   0  0  0  0  0  0  0  0  0  0  0  0
   -9.3230  -25.9229   29.8678 H   0  0  0  0  0  0  0  0  0  0  0  0
  1  2  2  0
  2  3  1  0
  3  4  2  0
  4  5  1  0
  5  6  1  0
  6  7  1  0
  7  8  1  0
  8  9  2  0
  9 10  1  0
 10 11  2  0
 11 12  1  0
 12 13  2  0
 12 14  1  0
 14 15  1  0
 15 16  1  0
  5 17  1  0
 17 18  1  0
  4 19  1  0
 19 20  2  0
 20  1  1  0
 18  5  1  0
 13  8  1  0
 16 11  1  0
  1 21  1  0
  2 22  1  0
  3 23  1  0
  6 24  1  0
  7 25  1  0
  7 26  1  0
  9 27  1  0
 10 28  1  0
 13 29  1  0
 14 30  1  0
 14 31  1  0
 15 32  1  0
 15 33  1  0
 17 34  1  0
 17 35  1  0
 18 36  1  0
 18 37  1  0
 20 38  1  0
M  END
>  <Energy>  (642) 
1126.9392776345826

>  <compound_id>  (642) 
52822

>  <target_id>  (642) 
1

>  <reference_id>  (642) 
82

>  <inspiration_ids>  (642) 
[82, 89]

>  <energy_score>  (642) 
1034.7727842469646

>  <distance_score>  (642) 
3.6252691285659737

>  <path>  (642) 
/opt/xchem-fragalysis-2/maxwin/BulkDock/SCRATCH/511021/C52822-P82/C52822-P82.minimised.mol

>  <scratch_subdir>  (642) 
/opt/xchem-fragalysis-2/maxwin/BulkDock/SCRATCH/511021/C52822-P82

>  <fragmenstein_runtime>  (642) 
19.420764207839966

>  <fragmenstein_outcome>  (642) 
too moved

>  <fragmenstein_mode>  (642) 
expansion

>  <fragmenstein_error>  (642) 


$$$$
C52823-P82
     RDKit          3D

 44 47  0  0  0  0  0  0  0  0999 V2000
    0.4954  -23.4627   27.7078 C   0  0  0  0  0  0  0  0  0  0  0  0
   -1.1924  -23.0827   28.7310 C   0  0  0  0  0  0  0  0  0  0  0  0
   -3.1366  -23.5743   29.7145 N   0  0  0  0  0  0  0  0  0  0  0  0
   -4.3792  -23.5890   31.3692 C   0  0  0  0  0  0  0  0  0  0  0  0
   -6.2020  -24.3222   32.1124 C   0  0  0  0  0  0  0  0  0  0  0  0
   -7.8785  -23.8789   32.7011 C   0  0  0  0  0  0  0  0  0  0  0  0
   -9.3452  -24.1993   32.5296 C   0  0  0  0  0  0  0  0  0  0  0  0
   -9.5226  -25.1288   31.6148 C   0  0  0  0  0  0  0  0  0  0  0  0
  -10.4845  -25.1194   30.4875 C   0  0  0  0  0  0  0  0  0  0  0  0
  -11.1947  -26.3643   30.0735 C   0  0  0  0  0  0  0  0  0  0  0  0
  -11.9421  -25.2296   30.7386 C   0  0  0  0  0  0  0  0  0  0  0  0
   -8.5010  -25.9153   31.6882 N   0  0  0  0  0  0  0  0  0  0  0  0
   -7.1732  -25.4288   32.2100 C   0  0  0  0  0  0  0  0  0  0  0  0
    0.7219  -22.2009   28.0688 C   0  0  0  0  0  0  0  0  0  0  0  0
    2.4192  -22.5927   27.4029 C   0  0  0  0  0  0  0  0  0  0  0  0
    4.0749  -22.6265   27.7977 C   0  0  0  0  0  0  0  0  0  0  0  0
    4.6032  -22.2923   29.1542 C   0  0  0  0  0  0  0  0  0  0  0  0
    3.5618  -21.9371   30.1622 C   0  0  0  0  0  0  0  0  0  0  0  0
    1.9059  -21.4906   29.4943 C   0  0  0  0  0  0  0  0  0  0  0  0
    4.3989  -21.2792   31.4624 C   0  0  0  0  0  0  0  0  0  0  0  0
    5.5285  -20.3132   30.5818 C   0  0  0  0  0  0  0  0  0  0  0  0
    5.5785  -21.2088   29.2562 O   0  0  0  0  0  0  0  0  0  0  0  0
    0.5773  -24.3598   28.5073 H   0  0  0  0  0  0  0  0  0  0  0  0
    1.1723  -24.3291   27.3548 H   0  0  0  0  0  0  0  0  0  0  0  0
    0.3875  -23.5227   26.5278 H   0  0  0  0  0  0  0  0  0  0  0  0
   -1.6939  -23.4018   27.8199 H   0  0  0  0  0  0  0  0  0  0  0  0
   -3.8234  -23.3130   28.9931 H   0  0  0  0  0  0  0  0  0  0  0  0
   -3.6478  -24.0015   32.0600 H   0  0  0  0  0  0  0  0  0  0  0  0
   -4.2742  -22.6625   31.8763 H   0  0  0  0  0  0  0  0  0  0  0  0
   -7.9387  -22.9570   33.3935 H   0  0  0  0  0  0  0  0  0  0  0  0
  -10.1190  -23.5093   32.8237 H   0  0  0  0  0  0  0  0  0  0  0  0
  -10.1992  -24.5047   29.6423 H   0  0  0  0  0  0  0  0  0  0  0  0
  -10.8956  -27.2544   30.6135 H   0  0  0  0  0  0  0  0  0  0  0  0
  -11.3552  -26.5261   29.0148 H   0  0  0  0  0  0  0  0  0  0  0  0
  -12.2499  -25.3102   31.7728 H   0  0  0  0  0  0  0  0  0  0  0  0
  -12.6101  -24.6324   30.1294 H   0  0  0  0  0  0  0  0  0  0  0  0
   -7.0773  -26.1459   33.0686 H   0  0  0  0  0  0  0  0  0  0  0  0
    2.5255  -23.2896   26.5128 H   0  0  0  0  0  0  0  0  0  0  0  0
    4.7561  -22.8646   26.9801 H   0  0  0  0  0  0  0  0  0  0  0  0
    1.4012  -20.7768   30.2033 H   0  0  0  0  0  0  0  0  0  0  0  0
    3.7197  -20.7158   32.1088 H   0  0  0  0  0  0  0  0  0  0  0  0
    4.8660  -22.0693   32.0120 H   0  0  0  0  0  0  0  0  0  0  0  0
    5.2251  -19.2702   30.4112 H   0  0  0  0  0  0  0  0  0  0  0  0
    6.5808  -20.1436   30.8574 H   0  0  0  0  0  0  0  0  0  0  0  0
  1  2  1  0
  2  3  1  0
  3  4  1  0
  4  5  1  0
  5  6  2  0
  6  7  1  0
  7  8  2  0
  8  9  1  0
  9 10  1  0
 10 11  1  0
  8 12  1  0
 12 13  2  0
  2 14  1  0
 14 15  2  0
 15 16  1  0
 16 17  2  0
 17 18  1  0
 18 19  2  0
 18 20  1  0
 20 21  1  0
 21 22  1  0
 13  5  1  0
 19 14  1  0
 11  9  1  0
 22 17  1  0
  1 23  1  0
  1 24  1  0
  1 25  1  0
  2 26  1  0
  3 27  1  0
  4 28  1  0
  4 29  1  0
  6 30  1  0
  7 31  1  0
  9 32  1  0
 10 33  1  0
 10 34  1  0
 11 35  1  0
 11 36  1  0
 13 37  1  0
 15 38  1  0
 16 39  1  0
 19 40  1  0
 20 41  1  0
 20 42  1  0
 21 43  1  0
 21 44  1  0
M  END
>  <Energy>  (643) 
1845.674112546003

>  <compound_id>  (643) 
52823

>  <target_id>  (643) 
1

>  <reference_id>  (643) 
82

>  <inspiration_ids>  (643) 
[82, 89]

>  <energy_score>  (643) 
1755.437709901984

>  <distance_score>  (643) 
3.0816778078449025

>  <path>  (643) 
/opt/xchem-fragalysis-2/maxwin/BulkDock/SCRATCH/511021/C52823-P82/C52823-P82.minimised.mol

>  <scratch_subdir>  (643) 
/opt/xchem-fragalysis-2/maxwin/BulkDock/SCRATCH/511021/C52823-P82

>  <fragmenstein_runtime>  (643) 
15.95223331451416

>  <fragmenstein_outcome>  (643) 
too moved

>  <fragmenstein_mode>  (643) 
expansion

>  <fragmenstein_error>  (643) 


$$$$
C52824-P82
     RDKit          3D

 36 39  0  0  0  0  0  0  0  0999 V2000
   -9.1418  -25.4730   28.7186 O   0  0  0  0  0  0  0  0  0  0  0  0
   -7.9279  -25.6314   28.4554 C   0  0  0  0  0  0  0  0  0  0  0  0
   -7.6807  -26.8608   27.9982 O   0  0  0  0  0  0  0  0  0  0  0  0
   -6.4924  -24.2048   28.5284 C   0  0  0  0  0  0  0  0  0  0  0  0
   -4.4934  -23.7765   28.9034 C   0  0  0  0  0  0  0  0  0  0  0  0
   -3.6596  -24.1151   27.7708 C   0  0  0  0  0  0  0  0  0  0  0  0
   -1.9277  -23.5521   27.6348 C   0  0  0  0  0  0  0  0  0  0  0  0
   -0.7694  -22.3392   28.2916 C   0  0  0  0  0  0  0  0  0  0  0  0
    1.2564  -22.3177   28.0074 C   0  0  0  0  0  0  0  0  0  0  0  0
    2.6422  -22.7796   27.2068 C   0  0  0  0  0  0  0  0  0  0  0  0
    4.1896  -22.6771   27.7000 C   0  0  0  0  0  0  0  0  0  0  0  0
    4.7058  -22.2818   29.1052 C   0  0  0  0  0  0  0  0  0  0  0  0
    3.7635  -21.9772   30.1437 C   0  0  0  0  0  0  0  0  0  0  0  0
    2.1375  -21.5686   29.5087 C   0  0  0  0  0  0  0  0  0  0  0  0
    4.4852  -21.2998   31.4205 C   0  0  0  0  0  0  0  0  0  0  0  0
    5.5687  -20.2904   30.5638 C   0  0  0  0  0  0  0  0  0  0  0  0
    5.6412  -21.1376   29.2329 O   0  0  0  0  0  0  0  0  0  0  0  0
   -1.8129  -21.8105   29.5708 C   0  0  0  0  0  0  0  0  0  0  0  0
   -3.5083  -22.6874   30.0500 N   0  0  0  0  0  0  0  0  0  0  0  0
   -7.3647  -24.0427   29.4254 C   0  0  0  0  0  0  0  0  0  0  0  0
   -7.1546  -22.9534   28.0755 C   0  0  0  0  0  0  0  0  0  0  0  0
   -6.7927  -27.0177   27.6391 H   0  0  0  0  0  0  0  0  0  0  0  0
   -3.7593  -24.9925   27.1719 H   0  0  0  0  0  0  0  0  0  0  0  0
   -1.7168  -23.9640   26.6259 H   0  0  0  0  0  0  0  0  0  0  0  0
    2.6119  -23.4393   26.3314 H   0  0  0  0  0  0  0  0  0  0  0  0
    4.9355  -22.9211   26.9391 H   0  0  0  0  0  0  0  0  0  0  0  0
    1.5772  -20.8711   30.1782 H   0  0  0  0  0  0  0  0  0  0  0  0
    3.7734  -20.7567   32.0541 H   0  0  0  0  0  0  0  0  0  0  0  0
    4.9372  -22.0682   32.0070 H   0  0  0  0  0  0  0  0  0  0  0  0
    6.6170  -20.1184   30.8495 H   0  0  0  0  0  0  0  0  0  0  0  0
    5.2367  -19.2536   30.4203 H   0  0  0  0  0  0  0  0  0  0  0  0
   -1.7541  -20.9778   30.1836 H   0  0  0  0  0  0  0  0  0  0  0  0
   -8.2745  -24.4793   29.8689 H   0  0  0  0  0  0  0  0  0  0  0  0
   -6.5497  -24.4931   30.0515 H   0  0  0  0  0  0  0  0  0  0  0  0
   -6.3889  -22.2493   27.7879 H   0  0  0  0  0  0  0  0  0  0  0  0
   -8.0436  -22.8215   27.5141 H   0  0  0  0  0  0  0  0  0  0  0  0
  1  2  2  0
  2  3  1  0
  2  4  1  0
  4  5  1  0
  5  6  2  0
  6  7  1  0
  7  8  2  0
  8  9  1  0
  9 10  2  0
 10 11  1  0
 11 12  2  0
 12 13  1  0
 13 14  2  0
 13 15  1  0
 15 16  1  0
 16 17  1  0
  8 18  1  0
 18 19  2  0
  4 20  1  0
 20 21  1  0
 21  4  1  0
 19  5  1  0
 14  9  1  0
 17 12  1  0
  3 22  1  0
  6 23  1  0
  7 24  1  0
 10 25  1  0
 11 26  1  0
 14 27  1  0
 15 28  1  0
 15 29  1  0
 16 30  1  0
 16 31  1  0
 18 32  1  0
 20 33  1  0
 20 34  1  0
 21 35  1  0
 21 36  1  0
M  END
>  <Energy>  (644) 
1122.1137472723897

>  <compound_id>  (644) 
52824

>  <target_id>  (644) 
1

>  <reference_id>  (644) 
82

>  <inspiration_ids>  (644) 
[82, 89]

>  <energy_score>  (644) 
1028.474462784848

>  <distance_score>  (644) 
3.506317738094408

>  <path>  (644) 
/opt/xchem-fragalysis-2/maxwin/BulkDock/SCRATCH/511021/C52824-P82/C52824-P82.minimised.mol

>  <scratch_subdir>  (644) 
/opt/xchem-fragalysis-2/maxwin/BulkDock/SCRATCH/511021/C52824-P82

>  <fragmenstein_runtime>  (644) 
10.392402648925781

>  <fragmenstein_outcome>  (644) 
too moved

>  <fragmenstein_mode>  (644) 
expansion

>  <fragmenstein_error>  (644) 


$$$$
C52826-P82
     RDKit          3D

 37 40  0  0  0  0  0  0  0  0999 V2000
   -6.4361  -22.7860   27.0175 O   0  0  0  0  0  0  0  0  0  0  0  0
   -6.1449  -23.4038   28.0060 C   0  0  0  0  0  0  0  0  0  0  0  0
   -7.1215  -24.3071   29.0528 N   0  0  0  0  0  0  0  0  0  0  0  0
   -8.7813  -24.7239   28.9728 C   0  0  0  0  0  0  0  0  0  0  0  0
   -9.2692  -25.3029   30.2375 C   0  0  0  0  0  0  0  0  0  0  0  0
  -10.5813  -25.3595   30.6746 C   0  0  0  0  0  0  0  0  0  0  0  0
  -11.4041  -24.5698   29.9551 C   0  0  0  0  0  0  0  0  0  0  0  0
  -11.0516  -24.0552   28.7094 C   0  0  0  0  0  0  0  0  0  0  0  0
   -9.8117  -24.2830   28.1147 C   0  0  0  0  0  0  0  0  0  0  0  0
  -11.9725  -22.9233   28.4167 C   0  0  0  0  0  0  0  0  0  0  0  0
  -12.3328  -22.6311   29.8805 C   0  0  0  0  0  0  0  0  0  0  0  0
  -12.4198  -23.8883   30.5708 O   0  0  0  0  0  0  0  0  0  0  0  0
   -4.2999  -23.6709   28.6338 C   0  0  0  0  0  0  0  0  0  0  0  0
   -3.8436  -22.6693   30.0372 C   0  0  0  0  0  0  0  0  0  0  0  0
   -2.3155  -21.5548   29.8964 C   0  0  0  0  0  0  0  0  0  0  0  0
   -1.1199  -21.8316   29.0226 N   0  0  0  0  0  0  0  0  0  0  0  0
   -1.1148  -23.0862   28.1610 C   0  0  0  0  0  0  0  0  0  0  0  0
    0.6762  -23.2659   27.2334 C   0  0  0  0  0  0  0  0  0  0  0  0
    2.2845  -22.5911   27.4089 C   0  0  0  0  0  0  0  0  0  0  0  0
    2.0579  -23.9046   26.7718 C   0  0  0  0  0  0  0  0  0  0  0  0
   -2.7301  -23.8747   27.6266 C   0  0  0  0  0  0  0  0  0  0  0  0
   -6.5858  -24.6230   29.8261 H   0  0  0  0  0  0  0  0  0  0  0  0
   -8.6040  -25.5354   31.0710 H   0  0  0  0  0  0  0  0  0  0  0  0
  -10.8339  -25.6941   31.6741 H   0  0  0  0  0  0  0  0  0  0  0  0
   -9.6332  -23.7826   27.1817 H   0  0  0  0  0  0  0  0  0  0  0  0
  -11.4861  -22.0678   27.9460 H   0  0  0  0  0  0  0  0  0  0  0  0
  -12.7932  -23.2798   27.7964 H   0  0  0  0  0  0  0  0  0  0  0  0
  -11.5564  -22.0211   30.3626 H   0  0  0  0  0  0  0  0  0  0  0  0
  -13.2505  -22.0885   30.0555 H   0  0  0  0  0  0  0  0  0  0  0  0
   -3.9974  -23.1122   31.0342 H   0  0  0  0  0  0  0  0  0  0  0  0
   -1.9543  -20.8389   30.5568 H   0  0  0  0  0  0  0  0  0  0  0  0
    0.3263  -23.5932   26.1636 H   0  0  0  0  0  0  0  0  0  0  0  0
    2.2813  -22.1432   28.3372 H   0  0  0  0  0  0  0  0  0  0  0  0
    3.2172  -22.3604   26.8850 H   0  0  0  0  0  0  0  0  0  0  0  0
    2.6321  -23.8624   25.8661 H   0  0  0  0  0  0  0  0  0  0  0  0
    2.7143  -24.7742   27.0640 H   0  0  0  0  0  0  0  0  0  0  0  0
   -2.6705  -24.8900   27.1338 H   0  0  0  0  0  0  0  0  0  0  0  0
  1  2  2  0
  2  3  1  0
  3  4  1  0
  4  5  2  0
  5  6  1  0
  6  7  2  0
  7  8  1  0
  8  9  2  0
  8 10  1  0
 10 11  1  0
 11 12  1  0
  2 13  1  0
 13 14  2  0
 14 15  1  0
 15 16  2  0
 16 17  1  0
 17 18  1  0
 18 19  1  0
 19 20  1  0
 17 21  2  0
  9  4  1  0
 21 13  1  0
 12  7  1  0
 20 18  1  0
  3 22  1  0
  5 23  1  0
  6 24  1  0
  9 25  1  0
 10 26  1  0
 10 27  1  0
 11 28  1  0
 11 29  1  0
 14 30  1  0
 15 31  1  0
 18 32  1  0
 19 33  1  0
 19 34  1  0
 20 35  1  0
 20 36  1  0
 21 37  1  0
M  END
>  <Energy>  (645) 
661.16471981134941

>  <compound_id>  (645) 
52826

>  <target_id>  (645) 
1

>  <reference_id>  (645) 
82

>  <inspiration_ids>  (645) 
[82, 89]

>  <energy_score>  (645) 
609.744680189511

>  <distance_score>  (645) 
5.1923936796522

>  <path>  (645) 
/opt/xchem-fragalysis-2/maxwin/BulkDock/SCRATCH/511021/C52826-P82/C52826-P82.minimised.mol

>  <scratch_subdir>  (645) 
/opt/xchem-fragalysis-2/maxwin/BulkDock/SCRATCH/511021/C52826-P82

>  <fragmenstein_runtime>  (645) 
28.082879781723022

>  <fragmenstein_outcome>  (645) 
too moved

>  <fragmenstein_mode>  (645) 
expansion

>  <fragmenstein_error>  (645) 


$$$$
C52829-P82
     RDKit          3D

 43 46  0  0  0  0  0  0  0  0999 V2000
   -6.9377  -25.4797   32.9706 O   0  0  0  0  0  0  0  0  0  0  0  0
   -7.0825  -25.1333   31.8671 C   0  0  0  0  0  0  0  0  0  0  0  0
   -5.9408  -24.2040   30.7232 N   0  0  0  0  0  0  0  0  0  0  0  0
   -4.1139  -23.3267   31.0048 C   0  0  0  0  0  0  0  0  0  0  0  0
   -2.9162  -21.9156   30.1146 C   0  0  0  0  0  0  0  0  0  0  0  0
   -1.4022  -22.3987   29.1135 C   0  0  0  0  0  0  0  0  0  0  0  0
   -0.5220  -21.7386   28.3579 C   0  0  0  0  0  0  0  0  0  0  0  0
    0.0077  -21.1891   29.3818 C   0  0  0  0  0  0  0  0  0  0  0  0
   -0.7221  -20.2591   29.4825 C   0  0  0  0  0  0  0  0  0  0  0  0
   -2.0507  -20.9439   30.0660 C   0  0  0  0  0  0  0  0  0  0  0  0
   -0.0952  -19.0603   29.8886 C   0  0  0  0  0  0  0  0  0  0  0  0
    0.8722  -19.3261   30.7842 C   0  0  0  0  0  0  0  0  0  0  0  0
    1.8367  -20.3729   30.8634 C   0  0  0  0  0  0  0  0  0  0  0  0
    1.4404  -21.0922   29.8321 O   0  0  0  0  0  0  0  0  0  0  0  0
   -8.6845  -25.4628   31.3624 C   0  0  0  0  0  0  0  0  0  0  0  0
   -9.5637  -25.4450   32.4548 C   0  0  0  0  0  0  0  0  0  0  0  0
  -10.9220  -25.3287   32.2651 C   0  0  0  0  0  0  0  0  0  0  0  0
  -11.4866  -25.2196   31.0548 N   0  0  0  0  0  0  0  0  0  0  0  0
  -10.6926  -25.1950   29.9700 C   0  0  0  0  0  0  0  0  0  0  0  0
  -11.3609  -24.9052   28.6473 C   0  0  0  0  0  0  0  0  0  0  0  0
  -12.1433  -25.9981   27.9553 C   0  0  0  0  0  0  0  0  0  0  0  0
  -10.8783  -25.4923   27.3477 C   0  0  0  0  0  0  0  0  0  0  0  0
   -9.3025  -25.2912   30.1054 C   0  0  0  0  0  0  0  0  0  0  0  0
   -6.3604  -24.1476   29.7849 H   0  0  0  0  0  0  0  0  0  0  0  0
   -3.8497  -23.7111   30.0133 H   0  0  0  0  0  0  0  0  0  0  0  0
   -3.6750  -23.7403   31.8913 H   0  0  0  0  0  0  0  0  0  0  0  0
   -1.3833  -23.4358   28.7313 H   0  0  0  0  0  0  0  0  0  0  0  0
    0.1878  -22.2762   27.7192 H   0  0  0  0  0  0  0  0  0  0  0  0
   -2.4414  -20.5969   29.1073 H   0  0  0  0  0  0  0  0  0  0  0  0
   -0.5976  -18.5293   30.6712 H   0  0  0  0  0  0  0  0  0  0  0  0
    0.3172  -18.4864   29.1020 H   0  0  0  0  0  0  0  0  0  0  0  0
    0.1811  -19.7101   31.5254 H   0  0  0  0  0  0  0  0  0  0  0  0
    1.3110  -18.3057   30.7855 H   0  0  0  0  0  0  0  0  0  0  0  0
    2.1138  -20.9276   31.7546 H   0  0  0  0  0  0  0  0  0  0  0  0
    2.6979  -19.7679   31.0007 H   0  0  0  0  0  0  0  0  0  0  0  0
   -9.1874  -25.4862   33.4682 H   0  0  0  0  0  0  0  0  0  0  0  0
  -11.6093  -25.2883   33.1046 H   0  0  0  0  0  0  0  0  0  0  0  0
  -11.8106  -23.9149   28.5925 H   0  0  0  0  0  0  0  0  0  0  0  0
  -13.0794  -25.7175   27.4903 H   0  0  0  0  0  0  0  0  0  0  0  0
  -12.1292  -26.9899   28.3898 H   0  0  0  0  0  0  0  0  0  0  0  0
  -10.9600  -24.8728   26.4629 H   0  0  0  0  0  0  0  0  0  0  0  0
  -10.0407  -26.1748   27.3582 H   0  0  0  0  0  0  0  0  0  0  0  0
   -8.7112  -25.1530   29.2111 H   0  0  0  0  0  0  0  0  0  0  0  0
  1  2  2  0
  2  3  1  0
  3  4  1  0
  4  5  1  0
  5  6  2  0
  6  7  1  0
  7  8  2  0
  8  9  1  0
  9 10  2  0
  9 11  1  0
 11 12  1  0
 12 13  1  0
 13 14  1  0
  2 15  1  0
 15 16  2  0
 16 17  1  0
 17 18  2  0
 18 19  1  0
 19 20  1  0
 20 21  1  0
 21 22  1  0
 19 23  2  0
 10  5  1  0
 23 15  1  0
 14  8  1  0
 22 20  1  0
  3 24  1  0
  4 25  1  0
  4 26  1  0
  6 27  1  0
  7 28  1  0
 10 29  1  0
 11 30  1  0
 11 31  1  0
 12 32  1  0
 12 33  1  0
 13 34  1  0
 13 35  1  0
 16 36  1  0
 17 37  1  0
 20 38  1  0
 21 39  1  0
 21 40  1  0
 22 41  1  0
 22 42  1  0
 23 43  1  0
M  END
>  <Energy>  (646) 
826.77546424995126

>  <compound_id>  (646) 
52829

>  <target_id>  (646) 
1

>  <reference_id>  (646) 
82

>  <inspiration_ids>  (646) 
[82, 89]

>  <energy_score>  (646) 
782.8397539359191

>  <distance_score>  (646) 
4.723996152657724

>  <path>  (646) 
/opt/xchem-fragalysis-2/maxwin/BulkDock/SCRATCH/511021/C52829-P82/C52829-P82.minimised.mol

>  <scratch_subdir>  (646) 
/opt/xchem-fragalysis-2/maxwin/BulkDock/SCRATCH/511021/C52829-P82

>  <fragmenstein_runtime>  (646) 
22.237764596939087

>  <fragmenstein_outcome>  (646) 
too moved

>  <fragmenstein_mode>  (646) 
expansion

>  <fragmenstein_error>  (646) 


$$$$
C52830-P82
     RDKit          3D

 43 46  0  0  0  0  0  0  0  0999 V2000
   -1.1531  -22.3471   28.7881 C   0  0  0  0  0  0  0  0  0  0  0  0
   -2.1073  -21.5705   29.9489 C   0  0  0  0  0  0  0  0  0  0  0  0
   -3.7176  -22.5384   30.1786 N   0  0  0  0  0  0  0  0  0  0  0  0
   -4.1417  -23.4621   31.1940 C   0  0  0  0  0  0  0  0  0  0  0  0
   -3.6113  -23.7930   32.1945 O   0  0  0  0  0  0  0  0  0  0  0  0
   -5.9147  -24.2369   30.9661 C   0  0  0  0  0  0  0  0  0  0  0  0
   -6.5353  -24.7636   32.1569 C   0  0  0  0  0  0  0  0  0  0  0  0
   -7.9757  -25.2991   32.2105 C   0  0  0  0  0  0  0  0  0  0  0  0
   -8.9372  -25.3180   31.1604 N   0  0  0  0  0  0  0  0  0  0  0  0
   -8.5704  -24.9734   29.8343 C   0  0  0  0  0  0  0  0  0  0  0  0
   -9.6033  -25.3272   28.7602 C   0  0  0  0  0  0  0  0  0  0  0  0
  -11.0681  -25.4199   29.1471 C   0  0  0  0  0  0  0  0  0  0  0  0
  -10.6207  -24.3699   28.1821 C   0  0  0  0  0  0  0  0  0  0  0  0
   -7.0693  -24.4296   29.5523 C   0  0  0  0  0  0  0  0  0  0  0  0
   -1.5580  -20.3509   30.4603 C   0  0  0  0  0  0  0  0  0  0  0  0
   -0.4612  -19.9071   29.6384 C   0  0  0  0  0  0  0  0  0  0  0  0
    0.3370  -19.0083   30.1424 C   0  0  0  0  0  0  0  0  0  0  0  0
    1.0175  -19.9075   30.7796 C   0  0  0  0  0  0  0  0  0  0  0  0
    0.2113  -20.0256   31.8704 C   0  0  0  0  0  0  0  0  0  0  0  0
   -1.3201  -19.9418   31.7024 C   0  0  0  0  0  0  0  0  0  0  0  0
    1.4607  -20.6980   33.3215 C   0  0  0  0  0  0  0  0  0  0  0  0
    2.7650  -20.8072   32.2945 C   0  0  0  0  0  0  0  0  0  0  0  0
    2.2182  -20.5019   30.9361 O   0  0  0  0  0  0  0  0  0  0  0  0
   -1.5191  -22.9425   27.9634 H   0  0  0  0  0  0  0  0  0  0  0  0
   -0.4204  -21.7888   28.2519 H   0  0  0  0  0  0  0  0  0  0  0  0
   -1.0218  -23.3839   29.0846 H   0  0  0  0  0  0  0  0  0  0  0  0
   -2.5984  -20.9171   29.3530 H   0  0  0  0  0  0  0  0  0  0  0  0
   -4.3610  -22.5597   29.4313 H   0  0  0  0  0  0  0  0  0  0  0  0
   -5.6510  -24.9542   32.6890 H   0  0  0  0  0  0  0  0  0  0  0  0
   -8.3391  -25.7591   33.1218 H   0  0  0  0  0  0  0  0  0  0  0  0
   -9.2911  -26.1551   28.1310 H   0  0  0  0  0  0  0  0  0  0  0  0
  -11.3740  -25.0996   30.1386 H   0  0  0  0  0  0  0  0  0  0  0  0
  -11.6396  -26.2588   28.7702 H   0  0  0  0  0  0  0  0  0  0  0  0
  -10.7027  -23.3470   28.5264 H   0  0  0  0  0  0  0  0  0  0  0  0
  -10.9009  -24.4928   27.1417 H   0  0  0  0  0  0  0  0  0  0  0  0
   -6.8474  -23.9633   28.6089 H   0  0  0  0  0  0  0  0  0  0  0  0
   -0.6128  -20.1603   28.6221 H   0  0  0  0  0  0  0  0  0  0  0  0
    0.5467  -18.0818   29.6469 H   0  0  0  0  0  0  0  0  0  0  0  0
   -2.0475  -19.8507   32.5070 H   0  0  0  0  0  0  0  0  0  0  0  0
    1.7178  -19.9691   34.0984 H   0  0  0  0  0  0  0  0  0  0  0  0
    1.1500  -21.5978   33.8371 H   0  0  0  0  0  0  0  0  0  0  0  0
    3.5668  -21.5401   32.4079 H   0  0  0  0  0  0  0  0  0  0  0  0
    3.4523  -20.0363   32.4370 H   0  0  0  0  0  0  0  0  0  0  0  0
  1  2  1  0
  2  3  1  0
  3  4  1  0
  4  5  2  0
  4  6  1  0
  6  7  2  0
  7  8  1  0
  8  9  2  0
  9 10  1  0
 10 11  1  0
 11 12  1  0
 12 13  1  0
 10 14  2  0
  2 15  1  0
 15 16  2  0
 16 17  1  0
 17 18  2  0
 18 19  1  0
 19 20  2  0
 19 21  1  0
 21 22  1  0
 22 23  1  0
 14  6  1  0
 20 15  1  0
 13 11  1  0
 23 18  1  0
  1 24  1  0
  1 25  1  0
  1 26  1  0
  2 27  1  0
  3 28  1  0
  7 29  1  0
  8 30  1  0
 11 31  1  0
 12 32  1  0
 12 33  1  0
 13 34  1  0
 13 35  1  0
 14 36  1  0
 16 37  1  0
 17 38  1  0
 20 39  1  0
 21 40  1  0
 21 41  1  0
 22 42  1  0
 22 43  1  0
M  END
>  <Energy>  (647) 
575.01901560116789

>  <compound_id>  (647) 
52830

>  <target_id>  (647) 
1

>  <reference_id>  (647) 
82

>  <inspiration_ids>  (647) 
[82, 89]

>  <energy_score>  (647) 
525.2305819807173

>  <distance_score>  (647) 
4.9166712798611325

>  <path>  (647) 
/opt/xchem-fragalysis-2/maxwin/BulkDock/SCRATCH/511021/C52830-P82/C52830-P82.minimised.mol

>  <scratch_subdir>  (647) 
/opt/xchem-fragalysis-2/maxwin/BulkDock/SCRATCH/511021/C52830-P82

>  <fragmenstein_runtime>  (647) 
33.33610415458679

>  <fragmenstein_outcome>  (647) 
too moved

>  <fragmenstein_mode>  (647) 
expansion

>  <fragmenstein_error>  (647) 


$$$$
C52831-P82
     RDKit          3D

 44 47  0  0  0  0  0  0  0  0999 V2000
   -9.3997  -24.1876   28.0544 C   0  0  0  0  0  0  0  0  0  0  0  0
  -10.6862  -24.6894   28.0076 C   0  0  0  0  0  0  0  0  0  0  0  0
  -10.8844  -25.7685   28.7858 C   0  0  0  0  0  0  0  0  0  0  0  0
  -11.8614  -26.8472   28.3456 C   0  0  0  0  0  0  0  0  0  0  0  0
  -12.9460  -26.6327   27.2911 C   0  0  0  0  0  0  0  0  0  0  0  0
  -11.7244  -27.3868   26.9181 C   0  0  0  0  0  0  0  0  0  0  0  0
  -10.0669  -25.8901   29.8571 N   0  0  0  0  0  0  0  0  0  0  0  0
   -8.8402  -25.1838   29.9390 C   0  0  0  0  0  0  0  0  0  0  0  0
   -8.1271  -24.5693   28.8846 C   0  0  0  0  0  0  0  0  0  0  0  0
   -6.3815  -23.7571   28.3173 C   0  0  0  0  0  0  0  0  0  0  0  0
   -4.3432  -23.8863   28.3912 N   0  0  0  0  0  0  0  0  0  0  0  0
   -2.4572  -23.7045   27.6082 C   0  0  0  0  0  0  0  0  0  0  0  0
   -0.9299  -22.5197   28.1969 C   0  0  0  0  0  0  0  0  0  0  0  0
    0.6344  -22.8378   27.5687 C   0  0  0  0  0  0  0  0  0  0  0  0
    2.0383  -22.2470   27.9709 C   0  0  0  0  0  0  0  0  0  0  0  0
    2.0962  -21.4760   29.5213 C   0  0  0  0  0  0  0  0  0  0  0  0
    0.8280  -20.8512   29.8907 C   0  0  0  0  0  0  0  0  0  0  0  0
   -0.7201  -21.3296   29.1215 C   0  0  0  0  0  0  0  0  0  0  0  0
    1.2664  -19.9885   30.8640 C   0  0  0  0  0  0  0  0  0  0  0  0
    2.6890  -20.6728   31.9649 C   0  0  0  0  0  0  0  0  0  0  0  0
    3.8655  -21.3955   31.5408 C   0  0  0  0  0  0  0  0  0  0  0  0
    3.3757  -21.8965   30.2712 O   0  0  0  0  0  0  0  0  0  0  0  0
   -9.2594  -23.4317   27.3187 H   0  0  0  0  0  0  0  0  0  0  0  0
  -11.3632  -24.3687   27.2285 H   0  0  0  0  0  0  0  0  0  0  0  0
  -12.0202  -27.6112   29.0965 H   0  0  0  0  0  0  0  0  0  0  0  0
  -13.8425  -27.2397   27.2749 H   0  0  0  0  0  0  0  0  0  0  0  0
  -13.0991  -25.6484   26.8667 H   0  0  0  0  0  0  0  0  0  0  0  0
  -11.0255  -26.9201   26.2343 H   0  0  0  0  0  0  0  0  0  0  0  0
  -11.8340  -28.4551   26.7597 H   0  0  0  0  0  0  0  0  0  0  0  0
   -8.5077  -25.2980   30.9743 H   0  0  0  0  0  0  0  0  0  0  0  0
   -6.6133  -22.7280   28.0230 H   0  0  0  0  0  0  0  0  0  0  0  0
   -6.2889  -24.2503   29.2834 H   0  0  0  0  0  0  0  0  0  0  0  0
   -4.1547  -23.1584   29.0936 H   0  0  0  0  0  0  0  0  0  0  0  0
   -1.6988  -23.7775   28.4802 H   0  0  0  0  0  0  0  0  0  0  0  0
   -2.3489  -24.7185   27.1511 H   0  0  0  0  0  0  0  0  0  0  0  0
    0.8454  -23.6493   26.8607 H   0  0  0  0  0  0  0  0  0  0  0  0
    2.9733  -22.5895   27.4860 H   0  0  0  0  0  0  0  0  0  0  0  0
   -1.6289  -21.0008   29.5893 H   0  0  0  0  0  0  0  0  0  0  0  0
    1.3800  -18.9323   30.6335 H   0  0  0  0  0  0  0  0  0  0  0  0
    0.3101  -19.8089   31.3637 H   0  0  0  0  0  0  0  0  0  0  0  0
    2.2724  -20.9911   32.9373 H   0  0  0  0  0  0  0  0  0  0  0  0
    3.2377  -19.8986   32.3945 H   0  0  0  0  0  0  0  0  0  0  0  0
    4.2858  -22.0353   32.3177 H   0  0  0  0  0  0  0  0  0  0  0  0
    4.7768  -20.8315   31.3605 H   0  0  0  0  0  0  0  0  0  0  0  0
  1  2  2  0
  2  3  1  0
  3  4  1  0
  4  5  1  0
  5  6  1  0
  3  7  2  0
  7  8  1  0
  8  9  2  0
  9 10  1  0
 10 11  1  0
 11 12  1  0
 12 13  1  0
 13 14  2  0
 14 15  1  0
 15 16  2  0
 16 17  1  0
 17 18  2  0
 17 19  1  0
 19 20  1  0
 20 21  1  0
 21 22  1  0
  9  1  1  0
 18 13  1  0
  6  4  1  0
 22 16  1  0
  1 23  1  0
  2 24  1  0
  4 25  1  0
  5 26  1  0
  5 27  1  0
  6 28  1  0
  6 29  1  0
  8 30  1  0
 10 31  1  0
 10 32  1  0
 11 33  1  0
 12 34  1  0
 12 35  1  0
 14 36  1  0
 15 37  1  0
 18 38  1  0
 19 39  1  0
 19 40  1  0
 20 41  1  0
 20 42  1  0
 21 43  1  0
 21 44  1  0
M  END
>  <Energy>  (648) 
901.23227789258794

>  <compound_id>  (648) 
52831

>  <target_id>  (648) 
1

>  <reference_id>  (648) 
82

>  <inspiration_ids>  (648) 
[82, 89]

>  <energy_score>  (648) 
834.8817717713277

>  <distance_score>  (648) 
3.834559771103495

>  <path>  (648) 
/opt/xchem-fragalysis-2/maxwin/BulkDock/SCRATCH/511021/C52831-P82/C52831-P82.minimised.mol

>  <scratch_subdir>  (648) 
/opt/xchem-fragalysis-2/maxwin/BulkDock/SCRATCH/511021/C52831-P82

>  <fragmenstein_runtime>  (648) 
17.183366060256958

>  <fragmenstein_outcome>  (648) 
too moved

>  <fragmenstein_mode>  (648) 
expansion

>  <fragmenstein_error>  (648) 


$$$$
C52832-P82
     RDKit          3D

 41 44  0  0  0  0  0  0  0  0999 V2000
   -1.2457  -22.0031   29.1093 O   0  0  0  0  0  0  0  0  0  0  0  0
   -1.0891  -22.8802   28.2119 C   0  0  0  0  0  0  0  0  0  0  0  0
   -2.6238  -23.7939   27.6056 O   0  0  0  0  0  0  0  0  0  0  0  0
   -4.6036  -23.5395   28.0719 C   0  0  0  0  0  0  0  0  0  0  0  0
   -6.1342  -24.3208   29.1757 C   0  0  0  0  0  0  0  0  0  0  0  0
   -7.5194  -24.3162   28.9030 C   0  0  0  0  0  0  0  0  0  0  0  0
   -8.9116  -24.9713   29.5261 C   0  0  0  0  0  0  0  0  0  0  0  0
   -9.0616  -25.4272   30.8501 C   0  0  0  0  0  0  0  0  0  0  0  0
   -7.8183  -25.3908   31.4520 C   0  0  0  0  0  0  0  0  0  0  0  0
   -6.3267  -24.7899   30.6198 N   0  0  0  0  0  0  0  0  0  0  0  0
   -5.3935  -22.2405   27.3911 C   0  0  0  0  0  0  0  0  0  0  0  0
   -5.7159  -23.2760   26.5717 C   0  0  0  0  0  0  0  0  0  0  0  0
    0.8192  -22.8788   27.6006 C   0  0  0  0  0  0  0  0  0  0  0  0
    1.6423  -23.8468   26.7987 C   0  0  0  0  0  0  0  0  0  0  0  0
    2.9634  -23.9559   26.3675 C   0  0  0  0  0  0  0  0  0  0  0  0
    4.1041  -23.2488   26.9158 C   0  0  0  0  0  0  0  0  0  0  0  0
    5.2552  -23.5268   26.6228 O   0  0  0  0  0  0  0  0  0  0  0  0
    3.6739  -22.5477   27.9863 N   0  0  0  0  0  0  0  0  0  0  0  0
    2.0956  -22.1364   28.1915 C   0  0  0  0  0  0  0  0  0  0  0  0
    2.0425  -21.1466   29.9296 C   0  0  0  0  0  0  0  0  0  0  0  0
    3.0034  -20.9947   31.4589 C   0  0  0  0  0  0  0  0  0  0  0  0
    4.4370  -21.6848   31.0339 C   0  0  0  0  0  0  0  0  0  0  0  0
    4.7084  -22.2817   29.2826 C   0  0  0  0  0  0  0  0  0  0  0  0
   -7.6932  -23.4278   28.2540 H   0  0  0  0  0  0  0  0  0  0  0  0
   -9.8094  -24.8269   28.9172 H   0  0  0  0  0  0  0  0  0  0  0  0
   -9.9736  -25.7597   31.3114 H   0  0  0  0  0  0  0  0  0  0  0  0
   -7.6265  -25.6235   32.4946 H   0  0  0  0  0  0  0  0  0  0  0  0
   -6.3082  -21.9397   27.8603 H   0  0  0  0  0  0  0  0  0  0  0  0
   -5.1497  -21.4993   26.6516 H   0  0  0  0  0  0  0  0  0  0  0  0
   -5.5757  -23.7025   25.5823 H   0  0  0  0  0  0  0  0  0  0  0  0
   -6.7935  -23.1240   26.4745 H   0  0  0  0  0  0  0  0  0  0  0  0
    1.3804  -24.7592   27.3247 H   0  0  0  0  0  0  0  0  0  0  0  0
    3.3643  -24.8867   25.9803 H   0  0  0  0  0  0  0  0  0  0  0  0
    1.0833  -20.7140   30.1683 H   0  0  0  0  0  0  0  0  0  0  0  0
    2.6879  -21.9404   30.1021 H   0  0  0  0  0  0  0  0  0  0  0  0
    3.1534  -19.9687   31.6178 H   0  0  0  0  0  0  0  0  0  0  0  0
    2.6779  -21.1297   32.4881 H   0  0  0  0  0  0  0  0  0  0  0  0
    4.8432  -22.2972   31.8166 H   0  0  0  0  0  0  0  0  0  0  0  0
    5.1019  -20.8130   31.1045 H   0  0  0  0  0  0  0  0  0  0  0  0
    5.2726  -23.1650   29.3281 H   0  0  0  0  0  0  0  0  0  0  0  0
    5.3691  -21.5402   28.9007 H   0  0  0  0  0  0  0  0  0  0  0  0
  1  2  2  0
  2  3  1  0
  3  4  1  0
  4  5  1  0
  5  6  2  0
  6  7  1  0
  7  8  2  0
  8  9  1  0
  9 10  2  0
  4 11  1  0
 11 12  1  0
  2 13  1  0
 13 14  1  0
 14 15  2  0
 15 16  1  0
 16 17  2  0
 16 18  1  0
 18 19  1  0
 19 20  1  0
 20 21  1  0
 21 22  1  0
 22 23  1  0
 12  4  1  0
 19 13  2  0
 10  5  1  0
 23 18  1  0
  6 24  1  0
  7 25  1  0
  8 26  1  0
  9 27  1  0
 11 28  1  0
 11 29  1  0
 12 30  1  0
 12 31  1  0
 14 32  1  0
 15 33  1  0
 20 34  1  0
 20 35  1  0
 21 36  1  0
 21 37  1  0
 22 38  1  0
 22 39  1  0
 23 40  1  0
 23 41  1  0
M  END
>  <Energy>  (649) 
967.58357506606592

>  <compound_id>  (649) 
52832

>  <target_id>  (649) 
1

>  <reference_id>  (649) 
82

>  <inspiration_ids>  (649) 
[82, 89]

>  <energy_score>  (649) 
865.8112897020219

>  <distance_score>  (649) 
4.037481679075706

>  <path>  (649) 
/opt/xchem-fragalysis-2/maxwin/BulkDock/SCRATCH/511021/C52832-P82/C52832-P82.minimised.mol

>  <scratch_subdir>  (649) 
/opt/xchem-fragalysis-2/maxwin/BulkDock/SCRATCH/511021/C52832-P82

>  <fragmenstein_runtime>  (649) 
18.508392572402954

>  <fragmenstein_outcome>  (649) 
too moved

>  <fragmenstein_mode>  (649) 
expansion

>  <fragmenstein_error>  (649) 


$$$$
C52833-P82
     RDKit          3D

 42 45  0  0  0  0  0  0  0  0999 V2000
   -1.2092  -21.5513   29.0798 C   0  0  0  0  0  0  0  0  0  0  0  0
   -1.3972  -23.1952   28.8369 C   0  0  0  0  0  0  0  0  0  0  0  0
   -3.2978  -23.6450   29.7874 O   0  0  0  0  0  0  0  0  0  0  0  0
   -4.5526  -23.6165   31.3012 C   0  0  0  0  0  0  0  0  0  0  0  0
   -4.1763  -22.8223   32.0905 O   0  0  0  0  0  0  0  0  0  0  0  0
   -6.3318  -24.5304   32.0417 C   0  0  0  0  0  0  0  0  0  0  0  0
   -7.8948  -23.8945   32.6771 C   0  0  0  0  0  0  0  0  0  0  0  0
   -9.4377  -23.7972   32.1854 C   0  0  0  0  0  0  0  0  0  0  0  0
   -9.8015  -24.5787   31.1325 C   0  0  0  0  0  0  0  0  0  0  0  0
   -8.8568  -25.4349   30.8564 N   0  0  0  0  0  0  0  0  0  0  0  0
   -7.7700  -25.4920   31.8748 C   0  0  0  0  0  0  0  0  0  0  0  0
   -8.9051  -25.8324   33.3441 C   0  0  0  0  0  0  0  0  0  0  0  0
  -10.3869  -25.3545   33.8545 C   0  0  0  0  0  0  0  0  0  0  0  0
  -10.3736  -26.4787   32.9801 C   0  0  0  0  0  0  0  0  0  0  0  0
    0.3699  -23.0182   27.6716 C   0  0  0  0  0  0  0  0  0  0  0  0
    1.0792  -23.8306   26.7415 C   0  0  0  0  0  0  0  0  0  0  0  0
    2.6683  -24.2228   26.2816 C   0  0  0  0  0  0  0  0  0  0  0  0
    3.7891  -23.7344   26.5428 C   0  0  0  0  0  0  0  0  0  0  0  0
    3.4022  -22.6806   27.1845 C   0  0  0  0  0  0  0  0  0  0  0  0
    1.8529  -22.3981   27.7751 C   0  0  0  0  0  0  0  0  0  0  0  0
    4.7130  -22.1084   27.3630 C   0  0  0  0  0  0  0  0  0  0  0  0
    5.6336  -23.0321   26.4657 C   0  0  0  0  0  0  0  0  0  0  0  0
    4.9264  -24.1411   26.0647 O   0  0  0  0  0  0  0  0  0  0  0  0
   -0.2532  -21.1862   29.3618 H   0  0  0  0  0  0  0  0  0  0  0  0
   -1.9231  -21.1695   29.8016 H   0  0  0  0  0  0  0  0  0  0  0  0
   -1.2109  -21.0222   28.1396 H   0  0  0  0  0  0  0  0  0  0  0  0
   -1.8324  -23.5053   27.8712 H   0  0  0  0  0  0  0  0  0  0  0  0
   -7.8967  -23.0039   33.4106 H   0  0  0  0  0  0  0  0  0  0  0  0
  -10.1171  -23.0774   32.6163 H   0  0  0  0  0  0  0  0  0  0  0  0
  -10.7294  -24.5673   30.5878 H   0  0  0  0  0  0  0  0  0  0  0  0
   -8.2562  -25.9313   34.1887 H   0  0  0  0  0  0  0  0  0  0  0  0
  -11.0738  -24.5850   33.5185 H   0  0  0  0  0  0  0  0  0  0  0  0
  -10.7012  -25.5706   34.8663 H   0  0  0  0  0  0  0  0  0  0  0  0
  -10.7143  -27.3745   33.4580 H   0  0  0  0  0  0  0  0  0  0  0  0
  -10.7642  -26.4578   31.9770 H   0  0  0  0  0  0  0  0  0  0  0  0
    0.4516  -23.9644   25.7990 H   0  0  0  0  0  0  0  0  0  0  0  0
    2.9196  -24.9504   25.5104 H   0  0  0  0  0  0  0  0  0  0  0  0
    2.0885  -21.8950   28.6900 H   0  0  0  0  0  0  0  0  0  0  0  0
    4.9798  -22.2261   28.4195 H   0  0  0  0  0  0  0  0  0  0  0  0
    4.7554  -21.0863   26.9740 H   0  0  0  0  0  0  0  0  0  0  0  0
    6.4493  -23.4798   27.0112 H   0  0  0  0  0  0  0  0  0  0  0  0
    6.0547  -22.5119   25.6050 H   0  0  0  0  0  0  0  0  0  0  0  0
  1  2  1  0
  2  3  1  0
  3  4  1  0
  4  5  2  0
  4  6  1  0
  6  7  2  0
  7  8  1  0
  8  9  2  0
  9 10  1  0
 10 11  2  0
 11 12  1  0
 12 13  1  0
 13 14  1  0
  2 15  1  0
 15 16  2  0
 16 17  1  0
 17 18  2  0
 18 19  1  0
 19 20  2  0
 19 21  1  0
 21 22  1  0
 22 23  1  0
 11  6  1  0
 14 12  1  0
 20 15  1  0
 23 18  1  0
  1 24  1  0
  1 25  1  0
  1 26  1  0
  2 27  1  0
  7 28  1  0
  8 29  1  0
  9 30  1  0
 12 31  1  0
 13 32  1  0
 13 33  1  0
 14 34  1  0
 14 35  1  0
 16 36  1  0
 17 37  1  0
 20 38  1  0
 21 39  1  0
 21 40  1  0
 22 41  1  0
 22 42  1  0
M  END
>  <Energy>  (650) 
1397.1789606969649

>  <compound_id>  (650) 
52833

>  <target_id>  (650) 
1

>  <reference_id>  (650) 
82

>  <inspiration_ids>  (650) 
[82, 89]

>  <energy_score>  (650) 
1288.129452006236

>  <distance_score>  (650) 
4.4808159174059785

>  <path>  (650) 
/opt/xchem-fragalysis-2/maxwin/BulkDock/SCRATCH/511021/C52833-P82/C52833-P82.minimised.mol

>  <scratch_subdir>  (650) 
/opt/xchem-fragalysis-2/maxwin/BulkDock/SCRATCH/511021/C52833-P82

>  <fragmenstein_runtime>  (650) 
20.462982416152954

>  <fragmenstein_outcome>  (650) 
too moved

>  <fragmenstein_mode>  (650) 
expansion

>  <fragmenstein_error>  (650) 


$$$$
C52834-P82
     RDKit          3D

 43 46  0  0  0  0  0  0  0  0999 V2000
   -4.6466  -23.1931   27.3500 O   0  0  0  0  0  0  0  0  0  0  0  0
   -4.9000  -23.2990   28.5225 C   0  0  0  0  0  0  0  0  0  0  0  0
   -3.7856  -22.6840   29.9588 N   0  0  0  0  0  0  0  0  0  0  0  0
   -2.0584  -21.5883   29.9047 C   0  0  0  0  0  0  0  0  0  0  0  0
   -0.3241  -21.2342   29.2437 C   0  0  0  0  0  0  0  0  0  0  0  0
    1.6528  -21.2630   29.6686 C   0  0  0  0  0  0  0  0  0  0  0  0
    2.3433  -22.1462   28.1607 C   0  0  0  0  0  0  0  0  0  0  0  0
    3.9311  -22.5779   28.0195 C   0  0  0  0  0  0  0  0  0  0  0  0
    4.6779  -22.2555   29.3008 C   0  0  0  0  0  0  0  0  0  0  0  0
    3.9282  -21.8533   30.5971 C   0  0  0  0  0  0  0  0  0  0  0  0
    2.4586  -21.1079   30.7705 C   0  0  0  0  0  0  0  0  0  0  0  0
    4.7287  -21.1779   31.5901 C   0  0  0  0  0  0  0  0  0  0  0  0
    5.6531  -20.2305   30.5773 C   0  0  0  0  0  0  0  0  0  0  0  0
    5.6445  -21.0940   29.2676 O   0  0  0  0  0  0  0  0  0  0  0  0
   -6.7839  -24.0192   28.7394 C   0  0  0  0  0  0  0  0  0  0  0  0
   -7.6603  -23.0432   27.9644 C   0  0  0  0  0  0  0  0  0  0  0  0
   -9.3417  -23.4008   27.7472 C   0  0  0  0  0  0  0  0  0  0  0  0
   -9.9644  -24.5877   27.9915 C   0  0  0  0  0  0  0  0  0  0  0  0
   -9.2169  -25.4226   28.6529 N   0  0  0  0  0  0  0  0  0  0  0  0
   -8.0801  -24.9046   29.3483 C   0  0  0  0  0  0  0  0  0  0  0  0
   -8.7749  -25.2274   30.9879 C   0  0  0  0  0  0  0  0  0  0  0  0
  -10.1412  -24.6460   31.3666 C   0  0  0  0  0  0  0  0  0  0  0  0
  -10.0388  -26.1009   31.0979 C   0  0  0  0  0  0  0  0  0  0  0  0
   -4.1730  -22.9658   30.8363 H   0  0  0  0  0  0  0  0  0  0  0  0
   -2.3773  -20.8495   29.2242 H   0  0  0  0  0  0  0  0  0  0  0  0
   -1.9475  -20.8742   30.6530 H   0  0  0  0  0  0  0  0  0  0  0  0
   -0.4630  -21.5503   28.2125 H   0  0  0  0  0  0  0  0  0  0  0  0
   -0.3753  -20.1412   29.3241 H   0  0  0  0  0  0  0  0  0  0  0  0
    1.6013  -22.6178   27.5518 H   0  0  0  0  0  0  0  0  0  0  0  0
    4.3682  -22.9427   27.1026 H   0  0  0  0  0  0  0  0  0  0  0  0
    2.2781  -20.7934   31.7552 H   0  0  0  0  0  0  0  0  0  0  0  0
    5.1013  -22.0052   32.1326 H   0  0  0  0  0  0  0  0  0  0  0  0
    4.1019  -20.6280   32.2919 H   0  0  0  0  0  0  0  0  0  0  0  0
    5.2666  -19.2159   30.4351 H   0  0  0  0  0  0  0  0  0  0  0  0
    6.7131  -20.0404   30.7999 H   0  0  0  0  0  0  0  0  0  0  0  0
   -7.2677  -22.1229   27.5638 H   0  0  0  0  0  0  0  0  0  0  0  0
  -10.1156  -22.6118   27.7654 H   0  0  0  0  0  0  0  0  0  0  0  0
  -10.9978  -24.8241   27.7975 H   0  0  0  0  0  0  0  0  0  0  0  0
   -8.0696  -25.4481   31.7890 H   0  0  0  0  0  0  0  0  0  0  0  0
  -10.2869  -24.3369   32.3953 H   0  0  0  0  0  0  0  0  0  0  0  0
  -10.7444  -24.0948   30.6575 H   0  0  0  0  0  0  0  0  0  0  0  0
  -10.1936  -26.7391   31.9523 H   0  0  0  0  0  0  0  0  0  0  0  0
  -10.5140  -26.5059   30.2145 H   0  0  0  0  0  0  0  0  0  0  0  0
  1  2  2  0
  2  3  1  0
  3  4  1  0
  4  5  1  0
  5  6  1  0
  6  7  2  0
  7  8  1  0
  8  9  2  0
  9 10  1  0
 10 11  2  0
 10 12  1  0
 12 13  1  0
 13 14  1  0
  2 15  1  0
 15 16  2  0
 16 17  1  0
 17 18  2  0
 18 19  1  0
 19 20  2  0
 20 21  1  0
 21 22  1  0
 22 23  1  0
 11  6  1  0
 20 15  1  0
 23 21  1  0
 14  9  1  0
  3 24  1  0
  4 25  1  0
  4 26  1  0
  5 27  1  0
  5 28  1  0
  7 29  1  0
  8 30  1  0
 11 31  1  0
 12 32  1  0
 12 33  1  0
 13 34  1  0
 13 35  1  0
 16 36  1  0
 17 37  1  0
 18 38  1  0
 21 39  1  0
 22 40  1  0
 22 41  1  0
 23 42  1  0
 23 43  1  0
M  END
>  <Energy>  (651) 
900.60016599517587

>  <compound_id>  (651) 
52834

>  <target_id>  (651) 
1

>  <reference_id>  (651) 
82

>  <inspiration_ids>  (651) 
[82, 89]

>  <energy_score>  (651) 
809.2284497526142

>  <distance_score>  (651) 
3.6081397070516372

>  <path>  (651) 
/opt/xchem-fragalysis-2/maxwin/BulkDock/SCRATCH/511021/C52834-P82/C52834-P82.minimised.mol

>  <scratch_subdir>  (651) 
/opt/xchem-fragalysis-2/maxwin/BulkDock/SCRATCH/511021/C52834-P82

>  <fragmenstein_runtime>  (651) 
14.872294902801514

>  <fragmenstein_outcome>  (651) 
too moved

>  <fragmenstein_mode>  (651) 
expansion

>  <fragmenstein_error>  (651) 


$$$$
C52835-P82
     RDKit          3D

 45 48  0  0  0  0  0  0  0  0999 V2000
   -5.2941  -21.7630   27.1362 O   0  0  0  0  0  0  0  0  0  0  0  0
   -5.4731  -22.3816   28.0831 C   0  0  0  0  0  0  0  0  0  0  0  0
   -6.9667  -23.1457   28.3505 N   0  0  0  0  0  0  0  0  0  0  0  0
   -8.2030  -23.0849   27.6235 C   0  0  0  0  0  0  0  0  0  0  0  0
   -9.6051  -24.1102   27.9505 C   0  0  0  0  0  0  0  0  0  0  0  0
   -9.6097  -25.0156   29.0366 C   0  0  0  0  0  0  0  0  0  0  0  0
  -10.6438  -25.9176   29.2069 C   0  0  0  0  0  0  0  0  0  0  0  0
  -11.6520  -26.0471   28.3332 N   0  0  0  0  0  0  0  0  0  0  0  0
  -11.6931  -25.1872   27.2866 C   0  0  0  0  0  0  0  0  0  0  0  0
  -12.8223  -25.3735   26.3009 C   0  0  0  0  0  0  0  0  0  0  0  0
  -12.7223  -26.4854   25.2807 C   0  0  0  0  0  0  0  0  0  0  0  0
  -12.7134  -25.0549   24.8309 C   0  0  0  0  0  0  0  0  0  0  0  0
  -10.7161  -24.1914   27.1072 C   0  0  0  0  0  0  0  0  0  0  0  0
   -4.2106  -22.4565   29.5385 N   0  0  0  0  0  0  0  0  0  0  0  0
   -2.4624  -21.4144   29.8134 C   0  0  0  0  0  0  0  0  0  0  0  0
   -0.8217  -20.9334   29.0434 C   0  0  0  0  0  0  0  0  0  0  0  0
   -0.2025  -21.9008   28.0949 C   0  0  0  0  0  0  0  0  0  0  0  0
    1.5597  -22.2365   28.0652 C   0  0  0  0  0  0  0  0  0  0  0  0
    2.1897  -21.4877   29.6360 C   0  0  0  0  0  0  0  0  0  0  0  0
    1.6957  -20.5524   30.5753 C   0  0  0  0  0  0  0  0  0  0  0  0
    0.2863  -20.0016   30.0657 C   0  0  0  0  0  0  0  0  0  0  0  0
    2.7747  -20.7200   31.8239 C   0  0  0  0  0  0  0  0  0  0  0  0
    4.0410  -21.4522   31.4974 C   0  0  0  0  0  0  0  0  0  0  0  0
    3.7323  -22.0180   30.1668 O   0  0  0  0  0  0  0  0  0  0  0  0
   -6.8980  -23.7039   29.1754 H   0  0  0  0  0  0  0  0  0  0  0  0
   -7.7995  -23.0016   26.6158 H   0  0  0  0  0  0  0  0  0  0  0  0
   -8.4658  -22.1078   27.9260 H   0  0  0  0  0  0  0  0  0  0  0  0
   -8.8243  -25.0269   29.7723 H   0  0  0  0  0  0  0  0  0  0  0  0
  -10.6616  -26.5966   30.0549 H   0  0  0  0  0  0  0  0  0  0  0  0
  -13.8011  -25.2354   26.7356 H   0  0  0  0  0  0  0  0  0  0  0  0
  -13.6107  -27.0757   25.0864 H   0  0  0  0  0  0  0  0  0  0  0  0
  -11.8009  -27.0534   25.2271 H   0  0  0  0  0  0  0  0  0  0  0  0
  -11.7942  -24.6450   24.4359 H   0  0  0  0  0  0  0  0  0  0  0  0
  -13.6006  -24.6716   24.3367 H   0  0  0  0  0  0  0  0  0  0  0  0
  -10.8490  -23.5546   26.2532 H   0  0  0  0  0  0  0  0  0  0  0  0
   -4.5128  -23.1182   30.2235 H   0  0  0  0  0  0  0  0  0  0  0  0
   -2.7511  -20.5398   30.2470 H   0  0  0  0  0  0  0  0  0  0  0  0
   -1.8608  -21.7578   30.5306 H   0  0  0  0  0  0  0  0  0  0  0  0
   -0.8619  -22.8049   28.1161 H   0  0  0  0  0  0  0  0  0  0  0  0
    2.2202  -22.7612   27.3870 H   0  0  0  0  0  0  0  0  0  0  0  0
   -0.1713  -19.2669   30.7199 H   0  0  0  0  0  0  0  0  0  0  0  0
    2.3462  -21.0049   32.7928 H   0  0  0  0  0  0  0  0  0  0  0  0
    3.2478  -19.8776   32.1736 H   0  0  0  0  0  0  0  0  0  0  0  0
    4.4373  -22.0709   32.2974 H   0  0  0  0  0  0  0  0  0  0  0  0
    4.8928  -20.8089   31.3187 H   0  0  0  0  0  0  0  0  0  0  0  0
  1  2  2  0
  2  3  1  0
  3  4  1  0
  4  5  1  0
  5  6  2  0
  6  7  1  0
  7  8  2  0
  8  9  1  0
  9 10  1  0
 10 11  1  0
 11 12  1  0
  9 13  2  0
  2 14  1  0
 14 15  1  0
 15 16  1  0
 16 17  2  0
 17 18  1  0
 18 19  2  0
 19 20  1  0
 20 21  2  0
 20 22  1  0
 22 23  1  0
 23 24  1  0
 13  5  1  0
 21 16  1  0
 12 10  1  0
 24 19  1  0
  3 25  1  0
  4 26  1  0
  4 27  1  0
  6 28  1  0
  7 29  1  0
 10 30  1  0
 11 31  1  0
 11 32  1  0
 12 33  1  0
 12 34  1  0
 13 35  1  0
 14 36  1  0
 15 37  1  0
 15 38  1  0
 17 39  1  0
 18 40  1  0
 21 41  1  0
 22 42  1  0
 22 43  1  0
 23 44  1  0
 23 45  1  0
M  END
>  <Energy>  (652) 
565.34335185099826

>  <compound_id>  (652) 
52835

>  <target_id>  (652) 
1

>  <reference_id>  (652) 
82

>  <inspiration_ids>  (652) 
[82, 89]

>  <energy_score>  (652) 
588.5359029962474

>  <distance_score>  (652) 
4.0332608970460715

>  <path>  (652) 
/opt/xchem-fragalysis-2/maxwin/BulkDock/SCRATCH/511021/C52835-P82/C52835-P82.minimised.mol

>  <scratch_subdir>  (652) 
/opt/xchem-fragalysis-2/maxwin/BulkDock/SCRATCH/511021/C52835-P82

>  <fragmenstein_runtime>  (652) 
26.612444162368774

>  <fragmenstein_outcome>  (652) 
too moved

>  <fragmenstein_mode>  (652) 
expansion

>  <fragmenstein_error>  (652) 


$$$$
C52838-P82
     RDKit          3D

 40 43  0  0  0  0  0  0  0  0999 V2000
   -0.7997  -23.3540   28.1806 O   0  0  0  0  0  0  0  0  0  0  0  0
   -1.0937  -23.7170   29.2770 C   0  0  0  0  0  0  0  0  0  0  0  0
    0.0841  -24.6073   30.8615 N   0  0  0  0  0  0  0  0  0  0  0  0
    2.0653  -25.4096   31.1296 S   0  0  0  0  0  0  0  0  0  0  0  0
    2.6262  -26.2167   30.0310 O   0  0  0  0  0  0  0  0  0  0  0  0
    1.4440  -26.5385   31.8455 O   0  0  0  0  0  0  0  0  0  0  0  0
    3.4602  -24.8408   33.1366 C   0  0  0  0  0  0  0  0  0  0  0  0
    5.1271  -24.8079   32.3072 C   0  0  0  0  0  0  0  0  0  0  0  0
    5.1332  -23.1275   31.3086 C   0  0  0  0  0  0  0  0  0  0  0  0
    4.7581  -21.7883   31.4365 C   0  0  0  0  0  0  0  0  0  0  0  0
    4.1022  -21.6025   32.5426 C   0  0  0  0  0  0  0  0  0  0  0  0
    3.7068  -22.9199   33.3035 C   0  0  0  0  0  0  0  0  0  0  0  0
    3.5605  -20.3685   32.0977 C   0  0  0  0  0  0  0  0  0  0  0  0
    4.9699  -19.5695   31.1162 C   0  0  0  0  0  0  0  0  0  0  0  0
    5.2509  -20.7846   30.5871 O   0  0  0  0  0  0  0  0  0  0  0  0
   -3.3331  -23.6562   29.5441 C   0  0  0  0  0  0  0  0  0  0  0  0
   -4.0925  -24.3691   28.3979 C   0  0  0  0  0  0  0  0  0  0  0  0
   -4.8806  -23.2358   28.2380 C   0  0  0  0  0  0  0  0  0  0  0  0
   -6.8115  -23.5161   28.3248 C   0  0  0  0  0  0  0  0  0  0  0  0
   -7.8675  -22.8219   27.7270 C   0  0  0  0  0  0  0  0  0  0  0  0
   -9.4747  -23.4522   27.7399 C   0  0  0  0  0  0  0  0  0  0  0  0
   -9.8946  -24.5945   28.3801 C   0  0  0  0  0  0  0  0  0  0  0  0
   -8.8606  -25.0423   29.1263 C   0  0  0  0  0  0  0  0  0  0  0  0
   -7.4341  -24.5370   29.0993 N   0  0  0  0  0  0  0  0  0  0  0  0
   -0.4152  -24.7302   31.7378 H   0  0  0  0  0  0  0  0  0  0  0  0
    5.8636  -25.5790   32.1860 H   0  0  0  0  0  0  0  0  0  0  0  0
    5.3750  -23.2212   30.2034 H   0  0  0  0  0  0  0  0  0  0  0  0
    4.7692  -23.0026   33.4131 H   0  0  0  0  0  0  0  0  0  0  0  0
    2.7235  -20.5977   31.4177 H   0  0  0  0  0  0  0  0  0  0  0  0
    3.0230  -20.0743   32.9563 H   0  0  0  0  0  0  0  0  0  0  0  0
    5.9603  -19.1359   31.2289 H   0  0  0  0  0  0  0  0  0  0  0  0
    4.6803  -18.7906   30.3795 H   0  0  0  0  0  0  0  0  0  0  0  0
   -3.7521  -23.3641   30.5401 H   0  0  0  0  0  0  0  0  0  0  0  0
   -4.5940  -25.1933   28.7979 H   0  0  0  0  0  0  0  0  0  0  0  0
   -3.5908  -24.7238   27.4934 H   0  0  0  0  0  0  0  0  0  0  0  0
   -4.8484  -22.8277   27.2507 H   0  0  0  0  0  0  0  0  0  0  0  0
   -7.6365  -21.8488   27.3470 H   0  0  0  0  0  0  0  0  0  0  0  0
  -10.3554  -22.8769   27.4229 H   0  0  0  0  0  0  0  0  0  0  0  0
  -10.9160  -24.9248   28.4662 H   0  0  0  0  0  0  0  0  0  0  0  0
   -9.1211  -25.7344   29.9240 H   0  0  0  0  0  0  0  0  0  0  0  0
  1  2  2  0
  2  3  1  0
  3  4  1  0
  4  5  2  0
  4  6  2  0
  4  7  1  0
  7  8  2  0
  8  9  1  0
  9 10  2  0
 10 11  1  0
 11 12  2  0
 11 13  1  0
 13 14  1  0
 14 15  1  0
  2 16  1  0
 16 17  1  0
 17 18  1  0
 18 19  1  0
 19 20  2  0
 20 21  1  0
 21 22  2  0
 22 23  1  0
 23 24  2  0
 12  7  1  0
 18 16  1  0
 24 19  1  0
 15 10  1  0
  3 25  1  0
  8 26  1  0
  9 27  1  0
 12 28  1  0
 13 29  1  0
 13 30  1  0
 14 31  1  0
 14 32  1  0
 16 33  1  0
 17 34  1  0
 17 35  1  0
 18 36  1  0
 20 37  1  0
 21 38  1  0
 22 39  1  0
 23 40  1  0
M  END
>  <Energy>  (653) 
1237.0062442502604

>  <compound_id>  (653) 
52838

>  <target_id>  (653) 
1

>  <reference_id>  (653) 
82

>  <inspiration_ids>  (653) 
[82, 89]

>  <energy_score>  (653) 
1258.8081208274737

>  <distance_score>  (653) 
4.301153664994107

>  <path>  (653) 
/opt/xchem-fragalysis-2/maxwin/BulkDock/SCRATCH/511021/C52838-P82/C52838-P82.minimised.mol

>  <scratch_subdir>  (653) 
/opt/xchem-fragalysis-2/maxwin/BulkDock/SCRATCH/511021/C52838-P82

>  <fragmenstein_runtime>  (653) 
28.355335235595703

>  <fragmenstein_outcome>  (653) 
too moved

>  <fragmenstein_mode>  (653) 
expansion

>  <fragmenstein_error>  (653) 


$$$$
C52840-P82
     RDKit          3D

 38 42  0  0  0  0  0  0  0  0999 V2000
  -11.7640  -24.6487   33.5022 C   0  0  0  0  0  0  0  0  0  0  0  0
  -11.2337  -23.6142   32.8047 C   0  0  0  0  0  0  0  0  0  0  0  0
   -9.8419  -23.5955   32.6753 C   0  0  0  0  0  0  0  0  0  0  0  0
   -8.9473  -24.5899   33.0819 C   0  0  0  0  0  0  0  0  0  0  0  0
   -7.7183  -25.1423   32.0476 C   0  0  0  0  0  0  0  0  0  0  0  0
   -5.7929  -24.2356   31.5827 C   0  0  0  0  0  0  0  0  0  0  0  0
   -4.3150  -23.5455   31.2018 N   0  0  0  0  0  0  0  0  0  0  0  0
   -3.4613  -23.6527   29.5737 C   0  0  0  0  0  0  0  0  0  0  0  0
   -1.4891  -23.0867   28.8261 C   0  0  0  0  0  0  0  0  0  0  0  0
    0.0704  -22.9560   27.7811 C   0  0  0  0  0  0  0  0  0  0  0  0
    1.6623  -22.2887   28.0101 C   0  0  0  0  0  0  0  0  0  0  0  0
    1.7974  -21.3685   29.5076 C   0  0  0  0  0  0  0  0  0  0  0  0
    0.3037  -20.7183   29.6814 C   0  0  0  0  0  0  0  0  0  0  0  0
   -1.1362  -21.5494   29.3157 C   0  0  0  0  0  0  0  0  0  0  0  0
    0.6276  -19.6746   30.6195 C   0  0  0  0  0  0  0  0  0  0  0  0
    2.1101  -20.4664   31.1520 C   0  0  0  0  0  0  0  0  0  0  0  0
    2.6909  -21.4382   30.4353 O   0  0  0  0  0  0  0  0  0  0  0  0
   -4.5455  -24.0335   28.8218 N   0  0  0  0  0  0  0  0  0  0  0  0
   -5.9976  -24.3710   29.8099 O   0  0  0  0  0  0  0  0  0  0  0  0
   -8.8232  -25.1472   30.5706 C   0  0  0  0  0  0  0  0  0  0  0  0
   -8.7064  -26.3016   31.4595 C   0  0  0  0  0  0  0  0  0  0  0  0
   -9.4955  -25.5134   33.9054 N   0  0  0  0  0  0  0  0  0  0  0  0
  -10.8497  -25.5084   34.0721 C   0  0  0  0  0  0  0  0  0  0  0  0
  -12.8241  -24.7249   33.7051 H   0  0  0  0  0  0  0  0  0  0  0  0
  -11.8523  -22.8048   32.4365 H   0  0  0  0  0  0  0  0  0  0  0  0
   -9.3964  -22.6795   32.3925 H   0  0  0  0  0  0  0  0  0  0  0  0
    0.5073  -23.5142   26.9071 H   0  0  0  0  0  0  0  0  0  0  0  0
    2.5621  -22.5741   27.4404 H   0  0  0  0  0  0  0  0  0  0  0  0
   -1.9911  -21.1206   29.8265 H   0  0  0  0  0  0  0  0  0  0  0  0
    0.7011  -18.6501   30.2668 H   0  0  0  0  0  0  0  0  0  0  0  0
   -0.1990  -19.5992   31.2976 H   0  0  0  0  0  0  0  0  0  0  0  0
    2.7776  -19.6513   31.2100 H   0  0  0  0  0  0  0  0  0  0  0  0
    2.2149  -20.8795   32.1800 H   0  0  0  0  0  0  0  0  0  0  0  0
   -9.8234  -24.7202   30.5600 H   0  0  0  0  0  0  0  0  0  0  0  0
   -8.4384  -25.0956   29.5587 H   0  0  0  0  0  0  0  0  0  0  0  0
   -9.7097  -26.5253   31.8512 H   0  0  0  0  0  0  0  0  0  0  0  0
   -8.4129  -27.3315   31.2495 H   0  0  0  0  0  0  0  0  0  0  0  0
  -11.1769  -26.2390   34.7829 H   0  0  0  0  0  0  0  0  0  0  0  0
  1  2  2  0
  2  3  1  0
  3  4  2  0
  4  5  1  0
  5  6  1  0
  6  7  2  0
  7  8  1  0
  8  9  1  0
  9 10  2  0
 10 11  1  0
 11 12  2  0
 12 13  1  0
 13 14  2  0
 13 15  1  0
 15 16  1  0
 16 17  1  0
  8 18  2  0
 18 19  1  0
  5 20  1  0
 20 21  1  0
  4 22  1  0
 22 23  2  0
 23  1  1  0
 21  5  1  0
 19  6  1  0
 14  9  1  0
 17 12  1  0
  1 24  1  0
  2 25  1  0
  3 26  1  0
 10 27  1  0
 11 28  1  0
 14 29  1  0
 15 30  1  0
 15 31  1  0
 16 32  1  0
 16 33  1  0
 20 34  1  0
 20 35  1  0
 21 36  1  0
 21 37  1  0
 23 38  1  0
M  END
>  <Energy>  (654) 
1145.3676874543739

>  <compound_id>  (654) 
52840

>  <target_id>  (654) 
1

>  <reference_id>  (654) 
82

>  <inspiration_ids>  (654) 
[82, 89]

>  <energy_score>  (654) 
1030.259935450855

>  <distance_score>  (654) 
3.831569639234034

>  <path>  (654) 
/opt/xchem-fragalysis-2/maxwin/BulkDock/SCRATCH/511021/C52840-P82/C52840-P82.minimised.mol

>  <scratch_subdir>  (654) 
/opt/xchem-fragalysis-2/maxwin/BulkDock/SCRATCH/511021/C52840-P82

>  <fragmenstein_runtime>  (654) 
21.04449462890625

>  <fragmenstein_outcome>  (654) 
too moved

>  <fragmenstein_mode>  (654) 
expansion

>  <fragmenstein_error>  (654) 


$$$$
C52842-P82
     RDKit          3D

 43 45  0  0  0  0  0  0  0  0999 V2000
    1.5166  -26.6580   30.2412 C   0  0  0  0  0  0  0  0  0  0  0  0
    0.7048  -25.5856   29.7151 O   0  0  0  0  0  0  0  0  0  0  0  0
    1.0990  -25.0280   28.5230 C   0  0  0  0  0  0  0  0  0  0  0  0
    2.0911  -25.5557   27.8979 O   0  0  0  0  0  0  0  0  0  0  0  0
    0.3554  -23.3239   27.7243 C   0  0  0  0  0  0  0  0  0  0  0  0
   -1.6201  -23.4682   28.2757 N   0  0  0  0  0  0  0  0  0  0  0  0
   -3.6797  -24.0273   28.1135 C   0  0  0  0  0  0  0  0  0  0  0  0
   -3.2983  -25.2158   27.2318 C   0  0  0  0  0  0  0  0  0  0  0  0
   -5.4487  -24.3305   29.1678 C   0  0  0  0  0  0  0  0  0  0  0  0
   -7.1046  -24.3690   28.8606 C   0  0  0  0  0  0  0  0  0  0  0  0
   -8.6423  -24.8754   29.5769 C   0  0  0  0  0  0  0  0  0  0  0  0
   -8.8981  -25.3236   30.9107 C   0  0  0  0  0  0  0  0  0  0  0  0
   -7.6630  -25.3471   31.5427 C   0  0  0  0  0  0  0  0  0  0  0  0
   -6.1468  -24.6949   30.7310 N   0  0  0  0  0  0  0  0  0  0  0  0
    2.0533  -22.2933   28.0264 C   0  0  0  0  0  0  0  0  0  0  0  0
    3.2287  -22.7517   27.1975 C   0  0  0  0  0  0  0  0  0  0  0  0
    4.5540  -22.6440   27.7501 C   0  0  0  0  0  0  0  0  0  0  0  0
    4.9029  -22.1967   29.1660 C   0  0  0  0  0  0  0  0  0  0  0  0
    4.0238  -21.9828   30.2479 C   0  0  0  0  0  0  0  0  0  0  0  0
    2.5095  -21.7303   29.7336 C   0  0  0  0  0  0  0  0  0  0  0  0
    4.5893  -21.2468   31.4578 C   0  0  0  0  0  0  0  0  0  0  0  0
    5.6370  -20.2043   30.6008 C   0  0  0  0  0  0  0  0  0  0  0  0
    5.7821  -20.9242   29.2937 O   0  0  0  0  0  0  0  0  0  0  0  0
    1.2320  -27.6053   29.7885 H   0  0  0  0  0  0  0  0  0  0  0  0
    2.5831  -26.5264   30.0615 H   0  0  0  0  0  0  0  0  0  0  0  0
    1.3521  -26.7107   31.3172 H   0  0  0  0  0  0  0  0  0  0  0  0
    0.0747  -22.2625   27.8767 H   0  0  0  0  0  0  0  0  0  0  0  0
   -1.6856  -22.5504   28.7157 H   0  0  0  0  0  0  0  0  0  0  0  0
   -4.2363  -23.3509   27.4464 H   0  0  0  0  0  0  0  0  0  0  0  0
   -3.3258  -26.2286   27.5778 H   0  0  0  0  0  0  0  0  0  0  0  0
   -2.3604  -25.2329   26.6914 H   0  0  0  0  0  0  0  0  0  0  0  0
   -3.9449  -24.9585   26.4382 H   0  0  0  0  0  0  0  0  0  0  0  0
   -7.3320  -25.3866   28.4277 H   0  0  0  0  0  0  0  0  0  0  0  0
   -9.4688  -24.9252   28.8534 H   0  0  0  0  0  0  0  0  0  0  0  0
   -9.8358  -25.6515   31.3179 H   0  0  0  0  0  0  0  0  0  0  0  0
   -7.5059  -25.5697   32.5896 H   0  0  0  0  0  0  0  0  0  0  0  0
    3.1267  -23.2913   26.2639 H   0  0  0  0  0  0  0  0  0  0  0  0
    5.3548  -22.9592   27.0826 H   0  0  0  0  0  0  0  0  0  0  0  0
    1.8671  -20.9921   30.2578 H   0  0  0  0  0  0  0  0  0  0  0  0
    3.8240  -20.7159   32.0400 H   0  0  0  0  0  0  0  0  0  0  0  0
    4.9968  -21.9817   32.1124 H   0  0  0  0  0  0  0  0  0  0  0  0
    6.6759  -20.0349   30.9100 H   0  0  0  0  0  0  0  0  0  0  0  0
    5.2568  -19.1837   30.4905 H   0  0  0  0  0  0  0  0  0  0  0  0
  1  2  1  0
  2  3  1  0
  3  4  2  0
  3  5  1  0
  5  6  1  0
  6  7  1  0
  7  8  1  0
  7  9  1  0
  9 10  2  0
 10 11  1  0
 11 12  2  0
 12 13  1  0
 13 14  2  0
  5 15  1  0
 15 16  2  0
 16 17  1  0
 17 18  2  0
 18 19  1  0
 19 20  2  0
 19 21  1  0
 21 22  1  0
 22 23  1  0
 14  9  1  0
 20 15  1  0
 23 18  1  0
  1 24  1  0
  1 25  1  0
  1 26  1  0
  5 27  1  0
  6 28  1  0
  7 29  1  0
  8 30  1  0
  8 31  1  0
  8 32  1  0
 10 33  1  0
 11 34  1  0
 12 35  1  0
 13 36  1  0
 16 37  1  0
 17 38  1  0
 20 39  1  0
 21 40  1  0
 21 41  1  0
 22 42  1  0
 22 43  1  0
M  END
>  <Energy>  (655) 
1222.0503679902247

>  <compound_id>  (655) 
52842

>  <target_id>  (655) 
1

>  <reference_id>  (655) 
82

>  <inspiration_ids>  (655) 
[82, 89]

>  <energy_score>  (655) 
1069.0477746673823

>  <distance_score>  (655) 
3.3179698695062294

>  <path>  (655) 
/opt/xchem-fragalysis-2/maxwin/BulkDock/SCRATCH/511021/C52842-P82/C52842-P82.minimised.mol

>  <scratch_subdir>  (655) 
/opt/xchem-fragalysis-2/maxwin/BulkDock/SCRATCH/511021/C52842-P82

>  <fragmenstein_runtime>  (655) 
15.52453875541687

>  <fragmenstein_outcome>  (655) 
too moved

>  <fragmenstein_mode>  (655) 
expansion

>  <fragmenstein_error>  (655) 


$$$$
C52843-P82
     RDKit          3D

 42 44  0  0  0  0  0  0  0  0999 V2000
    0.2746  -25.1705   29.6200 O   0  0  0  0  0  0  0  0  0  0  0  0
   -0.0624  -24.2368   28.8924 C   0  0  0  0  0  0  0  0  0  0  0  0
   -1.5846  -23.3970   28.7391 N   0  0  0  0  0  0  0  0  0  0  0  0
   -3.3331  -23.7166   29.5697 O   0  0  0  0  0  0  0  0  0  0  0  0
   -4.7574  -23.5447   28.3290 C   0  0  0  0  0  0  0  0  0  0  0  0
   -6.7508  -23.5747   28.3386 C   0  0  0  0  0  0  0  0  0  0  0  0
   -7.7489  -22.8200   27.6928 C   0  0  0  0  0  0  0  0  0  0  0  0
   -9.3871  -23.4466   27.7310 C   0  0  0  0  0  0  0  0  0  0  0  0
   -9.8590  -24.5751   28.3781 C   0  0  0  0  0  0  0  0  0  0  0  0
   -8.8572  -25.0437   29.1424 C   0  0  0  0  0  0  0  0  0  0  0  0
   -7.4387  -24.5645   29.1174 N   0  0  0  0  0  0  0  0  0  0  0  0
    1.0997  -23.1684   27.6280 C   0  0  0  0  0  0  0  0  0  0  0  0
    1.9750  -23.8192   26.5780 C   0  0  0  0  0  0  0  0  0  0  0  0
    3.2878  -24.0410   26.3415 C   0  0  0  0  0  0  0  0  0  0  0  0
    4.3230  -23.4808   27.1469 C   0  0  0  0  0  0  0  0  0  0  0  0
    5.4838  -23.8385   27.0204 O   0  0  0  0  0  0  0  0  0  0  0  0
    3.7947  -22.5909   28.0424 N   0  0  0  0  0  0  0  0  0  0  0  0
    2.1870  -22.1946   28.1235 C   0  0  0  0  0  0  0  0  0  0  0  0
    1.9661  -21.1934   29.8042 C   0  0  0  0  0  0  0  0  0  0  0  0
    2.4096  -20.6554   31.1911 C   0  0  0  0  0  0  0  0  0  0  0  0
    3.6432  -21.0763   31.9014 C   0  0  0  0  0  0  0  0  0  0  0  0
    4.5937  -21.7396   30.9692 C   0  0  0  0  0  0  0  0  0  0  0  0
    4.7301  -22.2840   29.2689 C   0  0  0  0  0  0  0  0  0  0  0  0
   -1.4969  -22.6343   28.1127 H   0  0  0  0  0  0  0  0  0  0  0  0
   -4.9943  -24.3249   29.0014 H   0  0  0  0  0  0  0  0  0  0  0  0
   -4.8947  -22.4813   28.3235 H   0  0  0  0  0  0  0  0  0  0  0  0
   -7.4728  -21.9123   27.1669 H   0  0  0  0  0  0  0  0  0  0  0  0
  -10.2917  -22.8966   27.4257 H   0  0  0  0  0  0  0  0  0  0  0  0
  -10.8917  -24.8726   28.4492 H   0  0  0  0  0  0  0  0  0  0  0  0
   -9.1362  -25.7279   29.9409 H   0  0  0  0  0  0  0  0  0  0  0  0
    1.2295  -23.8571   25.7519 H   0  0  0  0  0  0  0  0  0  0  0  0
    3.6959  -24.5419   25.4884 H   0  0  0  0  0  0  0  0  0  0  0  0
    0.9159  -20.9273   29.9231 H   0  0  0  0  0  0  0  0  0  0  0  0
    2.6919  -21.8862   30.1099 H   0  0  0  0  0  0  0  0  0  0  0  0
    1.7370  -20.9262   31.9518 H   0  0  0  0  0  0  0  0  0  0  0  0
    2.4374  -19.5962   31.0194 H   0  0  0  0  0  0  0  0  0  0  0  0
    4.0571  -20.1690   32.2174 H   0  0  0  0  0  0  0  0  0  0  0  0
    3.5718  -21.5158   32.8926 H   0  0  0  0  0  0  0  0  0  0  0  0
    5.2273  -20.8209   30.9190 H   0  0  0  0  0  0  0  0  0  0  0  0
    5.0509  -22.4676   31.5978 H   0  0  0  0  0  0  0  0  0  0  0  0
    5.3816  -21.5438   28.8748 H   0  0  0  0  0  0  0  0  0  0  0  0
    5.3019  -23.1583   29.3549 H   0  0  0  0  0  0  0  0  0  0  0  0
  1  2  2  0
  2  3  1  0
  3  4  1  0
  4  5  1  0
  5  6  1  0
  6  7  2  0
  7  8  1  0
  8  9  2  0
  9 10  1  0
 10 11  2  0
  2 12  1  0
 12 13  1  0
 13 14  2  0
 14 15  1  0
 15 16  2  0
 15 17  1  0
 17 18  1  0
 18 19  1  0
 19 20  1  0
 20 21  1  0
 21 22  1  0
 22 23  1  0
 11  6  1  0
 18 12  2  0
 23 17  1  0
  3 24  1  0
  5 25  1  0
  5 26  1  0
  7 27  1  0
  8 28  1  0
  9 29  1  0
 10 30  1  0
 13 31  1  0
 14 32  1  0
 19 33  1  0
 19 34  1  0
 20 35  1  0
 20 36  1  0
 21 37  1  0
 21 38  1  0
 22 39  1  0
 22 40  1  0
 23 41  1  0
 23 42  1  0
M  END
>  <Energy>  (656) 
829.93611940174276

>  <compound_id>  (656) 
52843

>  <target_id>  (656) 
1

>  <reference_id>  (656) 
82

>  <inspiration_ids>  (656) 
[82, 89]

>  <energy_score>  (656) 
670.3215043286801

>  <distance_score>  (656) 
4.237974970204512

>  <path>  (656) 
/opt/xchem-fragalysis-2/maxwin/BulkDock/SCRATCH/511021/C52843-P82/C52843-P82.minimised.mol

>  <scratch_subdir>  (656) 
/opt/xchem-fragalysis-2/maxwin/BulkDock/SCRATCH/511021/C52843-P82

>  <fragmenstein_runtime>  (656) 
21.265893936157227

>  <fragmenstein_outcome>  (656) 
too moved

>  <fragmenstein_mode>  (656) 
expansion

>  <fragmenstein_error>  (656) 


$$$$
C52844-P82
     RDKit          3D

 37 39  0  0  0  0  0  0  0  0999 V2000
   -9.3529  -25.5056   30.5096 C   0  0  0  0  0  0  0  0  0  0  0  0
   -8.7563  -24.9641   29.1759 C   0  0  0  0  0  0  0  0  0  0  0  0
   -9.7611  -24.5919   28.3432 C   0  0  0  0  0  0  0  0  0  0  0  0
   -9.3317  -23.4382   27.7024 C   0  0  0  0  0  0  0  0  0  0  0  0
   -7.7089  -22.7496   27.5935 C   0  0  0  0  0  0  0  0  0  0  0  0
   -6.6299  -23.4390   28.1310 C   0  0  0  0  0  0  0  0  0  0  0  0
   -4.6764  -23.2572   27.9888 C   0  0  0  0  0  0  0  0  0  0  0  0
   -2.8772  -23.8406   27.5435 O   0  0  0  0  0  0  0  0  0  0  0  0
   -1.1214  -23.2106   27.8177 N   0  0  0  0  0  0  0  0  0  0  0  0
    0.5321  -23.4298   26.7425 C   0  0  0  0  0  0  0  0  0  0  0  0
    0.3522  -23.9743   25.7038 O   0  0  0  0  0  0  0  0  0  0  0  0
    2.4357  -23.1472   26.9679 C   0  0  0  0  0  0  0  0  0  0  0  0
    3.6745  -23.4826   26.4091 C   0  0  0  0  0  0  0  0  0  0  0  0
    4.9701  -22.8878   26.9230 C   0  0  0  0  0  0  0  0  0  0  0  0
    5.0986  -22.2807   28.2412 C   0  0  0  0  0  0  0  0  0  0  0  0
    4.1627  -22.5217   28.9837 C   0  0  0  0  0  0  0  0  0  0  0  0
    2.8990  -22.4340   27.9516 C   0  0  0  0  0  0  0  0  0  0  0  0
    4.5077  -21.8286   30.5690 C   0  0  0  0  0  0  0  0  0  0  0  0
    5.5548  -20.4613   30.2581 C   0  0  0  0  0  0  0  0  0  0  0  0
    5.6994  -21.0985   28.9245 O   0  0  0  0  0  0  0  0  0  0  0  0
   -7.2754  -24.4153   29.0509 N   0  0  0  0  0  0  0  0  0  0  0  0
  -10.1830  -24.8624   30.8289 H   0  0  0  0  0  0  0  0  0  0  0  0
   -8.6513  -25.5077   31.3463 H   0  0  0  0  0  0  0  0  0  0  0  0
   -9.7511  -26.5147   30.3557 H   0  0  0  0  0  0  0  0  0  0  0  0
  -10.7999  -24.8697   28.4422 H   0  0  0  0  0  0  0  0  0  0  0  0
  -10.2642  -22.9034   27.4447 H   0  0  0  0  0  0  0  0  0  0  0  0
   -7.5000  -21.8075   27.0926 H   0  0  0  0  0  0  0  0  0  0  0  0
   -4.8937  -23.3827   26.9502 H   0  0  0  0  0  0  0  0  0  0  0  0
   -4.5613  -24.0186   28.7571 H   0  0  0  0  0  0  0  0  0  0  0  0
   -0.9060  -22.6788   28.6170 H   0  0  0  0  0  0  0  0  0  0  0  0
    3.7770  -24.1044   25.5344 H   0  0  0  0  0  0  0  0  0  0  0  0
    5.7923  -22.8901   26.2089 H   0  0  0  0  0  0  0  0  0  0  0  0
    2.0589  -22.0132   28.4157 H   0  0  0  0  0  0  0  0  0  0  0  0
    4.9921  -22.5633   31.1842 H   0  0  0  0  0  0  0  0  0  0  0  0
    3.6731  -21.5349   31.2218 H   0  0  0  0  0  0  0  0  0  0  0  0
    5.2135  -19.4105   30.3476 H   0  0  0  0  0  0  0  0  0  0  0  0
    6.5662  -20.2476   30.6547 H   0  0  0  0  0  0  0  0  0  0  0  0
  1  2  1  0
  2  3  2  0
  3  4  1  0
  4  5  2  0
  5  6  1  0
  6  7  1  0
  7  8  1  0
  8  9  1  0
  9 10  1  0
 10 11  2  0
 10 12  1  0
 12 13  2  0
 13 14  1  0
 14 15  2  0
 15 16  1  0
 16 17  2  0
 16 18  1  0
 18 19  1  0
 19 20  1  0
  6 21  2  0
 21  2  1  0
 17 12  1  0
 20 15  1  0
  1 22  1  0
  1 23  1  0
  1 24  1  0
  3 25  1  0
  4 26  1  0
  5 27  1  0
  7 28  1  0
  7 29  1  0
  9 30  1  0
 13 31  1  0
 14 32  1  0
 17 33  1  0
 18 34  1  0
 18 35  1  0
 19 36  1  0
 19 37  1  0
M  END
>  <Energy>  (657) 
921.8035652775992

>  <compound_id>  (657) 
52844

>  <target_id>  (657) 
1

>  <reference_id>  (657) 
82

>  <inspiration_ids>  (657) 
[82, 89]

>  <energy_score>  (657) 
778.7055810745867

>  <distance_score>  (657) 
3.744623806471311

>  <path>  (657) 
/opt/xchem-fragalysis-2/maxwin/BulkDock/SCRATCH/511021/C52844-P82/C52844-P82.minimised.mol

>  <scratch_subdir>  (657) 
/opt/xchem-fragalysis-2/maxwin/BulkDock/SCRATCH/511021/C52844-P82

>  <fragmenstein_runtime>  (657) 
14.858734130859375

>  <fragmenstein_outcome>  (657) 
too moved

>  <fragmenstein_mode>  (657) 
expansion

>  <fragmenstein_error>  (657) 


$$$$
C52847-P82
     RDKit          3D

 44 47  0  0  0  0  0  0  0  0999 V2000
   -1.0827  -19.2133   34.8997 C   0  0  0  0  0  0  0  0  0  0  0  0
   -1.7172  -19.9619   33.6660 C   0  0  0  0  0  0  0  0  0  0  0  0
   -1.7475  -19.3468   31.8445 C   0  0  0  0  0  0  0  0  0  0  0  0
   -0.3183  -19.3960   30.6018 C   0  0  0  0  0  0  0  0  0  0  0  0
   -0.9627  -20.2559   29.0549 C   0  0  0  0  0  0  0  0  0  0  0  0
   -2.2250  -20.7837   29.3132 N   0  0  0  0  0  0  0  0  0  0  0  0
   -2.0717  -21.6730   30.2145 C   0  0  0  0  0  0  0  0  0  0  0  0
   -3.4537  -23.0087   31.1103 C   0  0  0  0  0  0  0  0  0  0  0  0
   -4.6193  -23.3972   31.6077 C   0  0  0  0  0  0  0  0  0  0  0  0
   -5.2824  -24.6346   32.3545 C   0  0  0  0  0  0  0  0  0  0  0  0
   -4.3691  -25.6049   33.3787 C   0  0  0  0  0  0  0  0  0  0  0  0
   -3.2166  -25.1487   33.5557 N   0  0  0  0  0  0  0  0  0  0  0  0
   -2.9941  -24.1160   32.4941 C   0  0  0  0  0  0  0  0  0  0  0  0
   -0.3606  -21.5893   29.4681 N   0  0  0  0  0  0  0  0  0  0  0  0
    1.5398  -21.2680   29.7102 C   0  0  0  0  0  0  0  0  0  0  0  0
    2.2860  -22.1218   28.2021 C   0  0  0  0  0  0  0  0  0  0  0  0
    3.9007  -22.5700   28.0247 C   0  0  0  0  0  0  0  0  0  0  0  0
    4.6708  -22.2583   29.2919 C   0  0  0  0  0  0  0  0  0  0  0  0
    3.9268  -21.8568   30.5835 C   0  0  0  0  0  0  0  0  0  0  0  0
    2.4373  -21.1104   30.7692 C   0  0  0  0  0  0  0  0  0  0  0  0
    4.7290  -21.1803   31.5806 C   0  0  0  0  0  0  0  0  0  0  0  0
    5.6533  -20.2339   30.5714 C   0  0  0  0  0  0  0  0  0  0  0  0
    5.6386  -21.1045   29.2610 O   0  0  0  0  0  0  0  0  0  0  0  0
   -0.6668  -21.2549   28.2975 N   0  0  0  0  0  0  0  0  0  0  0  0
   -1.4157  -18.2016   35.0120 H   0  0  0  0  0  0  0  0  0  0  0  0
    0.0004  -19.1599   34.8387 H   0  0  0  0  0  0  0  0  0  0  0  0
   -1.2230  -19.7211   35.8430 H   0  0  0  0  0  0  0  0  0  0  0  0
   -1.0971  -20.8385   33.6886 H   0  0  0  0  0  0  0  0  0  0  0  0
   -2.7419  -19.8686   33.6552 H   0  0  0  0  0  0  0  0  0  0  0  0
   -2.0223  -18.2918   31.9857 H   0  0  0  0  0  0  0  0  0  0  0  0
   -2.6184  -19.6794   31.4385 H   0  0  0  0  0  0  0  0  0  0  0  0
    0.0875  -18.4262   30.3573 H   0  0  0  0  0  0  0  0  0  0  0  0
    0.5381  -19.8485   31.0003 H   0  0  0  0  0  0  0  0  0  0  0  0
   -4.7018  -22.4745   32.2581 H   0  0  0  0  0  0  0  0  0  0  0  0
   -6.3670  -24.7504   32.2948 H   0  0  0  0  0  0  0  0  0  0  0  0
   -4.6565  -26.5298   33.8750 H   0  0  0  0  0  0  0  0  0  0  0  0
   -2.0062  -24.5175   32.6882 H   0  0  0  0  0  0  0  0  0  0  0  0
    1.5515  -22.6052   27.5790 H   0  0  0  0  0  0  0  0  0  0  0  0
    4.3114  -22.9141   27.0874 H   0  0  0  0  0  0  0  0  0  0  0  0
    2.2913  -20.8253   31.7781 H   0  0  0  0  0  0  0  0  0  0  0  0
    5.1005  -22.0065   32.1259 H   0  0  0  0  0  0  0  0  0  0  0  0
    4.1036  -20.6274   32.2809 H   0  0  0  0  0  0  0  0  0  0  0  0
    5.2677  -19.2190   30.4290 H   0  0  0  0  0  0  0  0  0  0  0  0
    6.7137  -20.0445   30.7928 H   0  0  0  0  0  0  0  0  0  0  0  0
  1  2  1  0
  2  3  1  0
  3  4  1  0
  4  5  1  0
  5  6  1  0
  6  7  2  0
  7  8  1  0
  8  9  2  0
  9 10  1  0
 10 11  2  0
 11 12  1  0
 12 13  2  0
  7 14  1  0
 14 15  1  0
 15 16  2  0
 16 17  1  0
 17 18  2  0
 18 19  1  0
 19 20  2  0
 19 21  1  0
 21 22  1  0
 22 23  1  0
 14 24  1  0
 24  5  2  0
 13  8  1  0
 20 15  1  0
 23 18  1  0
  1 25  1  0
  1 26  1  0
  1 27  1  0
  2 28  1  0
  2 29  1  0
  3 30  1  0
  3 31  1  0
  4 32  1  0
  4 33  1  0
  9 34  1  0
 10 35  1  0
 11 36  1  0
 13 37  1  0
 16 38  1  0
 17 39  1  0
 20 40  1  0
 21 41  1  0
 21 42  1  0
 22 43  1  0
 22 44  1  0
M  END
>  <Energy>  (658) 
1180.2349868641525

>  <compound_id>  (658) 
52847

>  <target_id>  (658) 
1

>  <reference_id>  (658) 
82

>  <inspiration_ids>  (658) 
[82, 89]

>  <energy_score>  (658) 
1052.966804150564

>  <distance_score>  (658) 
5.07895839682593

>  <path>  (658) 
/opt/xchem-fragalysis-2/maxwin/BulkDock/SCRATCH/511021/C52847-P82/C52847-P82.minimised.mol

>  <scratch_subdir>  (658) 
/opt/xchem-fragalysis-2/maxwin/BulkDock/SCRATCH/511021/C52847-P82

>  <fragmenstein_runtime>  (658) 
21.292600631713867

>  <fragmenstein_outcome>  (658) 
too moved

>  <fragmenstein_mode>  (658) 
expansion

>  <fragmenstein_error>  (658) 


$$$$
C52848-P82
     RDKit          3D

 50 52  0  0  0  0  0  0  0  0999 V2000
   -3.1447  -25.8067   24.8311 C   0  0  0  0  0  0  0  0  0  0  0  0
   -2.8448  -25.4388   26.6062 C   0  0  0  0  0  0  0  0  0  0  0  0
   -3.1741  -24.0886   27.5877 N   0  0  0  0  0  0  0  0  0  0  0  0
   -4.8615  -23.3697   27.8221 C   0  0  0  0  0  0  0  0  0  0  0  0
   -6.7329  -23.7328   28.2621 C   0  0  0  0  0  0  0  0  0  0  0  0
   -8.0376  -24.5910   29.0232 N   0  0  0  0  0  0  0  0  0  0  0  0
   -9.4570  -24.8012   28.5915 C   0  0  0  0  0  0  0  0  0  0  0  0
  -10.0180  -24.5002   27.5662 O   0  0  0  0  0  0  0  0  0  0  0  0
  -10.3818  -25.3842   29.6408 C   0  0  0  0  0  0  0  0  0  0  0  0
  -11.5540  -24.5984   29.7465 C   0  0  0  0  0  0  0  0  0  0  0  0
  -12.1971  -24.3996   30.9669 C   0  0  0  0  0  0  0  0  0  0  0  0
  -11.6770  -25.0173   32.0773 C   0  0  0  0  0  0  0  0  0  0  0  0
  -10.6327  -25.8616   32.0125 N   0  0  0  0  0  0  0  0  0  0  0  0
  -10.0306  -26.0480   30.8014 C   0  0  0  0  0  0  0  0  0  0  0  0
   -1.3660  -23.2697   28.0631 C   0  0  0  0  0  0  0  0  0  0  0  0
    0.6759  -23.1098   27.4408 C   0  0  0  0  0  0  0  0  0  0  0  0
    2.6601  -22.8222   27.2943 C   0  0  0  0  0  0  0  0  0  0  0  0
    3.6530  -22.7800   26.3936 C   0  0  0  0  0  0  0  0  0  0  0  0
    4.7860  -22.0252   26.8679 C   0  0  0  0  0  0  0  0  0  0  0  0
    5.1712  -21.7983   28.4904 C   0  0  0  0  0  0  0  0  0  0  0  0
    4.6986  -22.3772   29.5072 C   0  0  0  0  0  0  0  0  0  0  0  0
    3.6306  -22.6204   28.6309 C   0  0  0  0  0  0  0  0  0  0  0  0
    4.6664  -21.5993   30.9728 C   0  0  0  0  0  0  0  0  0  0  0  0
    5.6730  -20.2200   30.5040 C   0  0  0  0  0  0  0  0  0  0  0  0
    5.9971  -20.5711   29.1280 O   0  0  0  0  0  0  0  0  0  0  0  0
   -2.2128  -25.9539   24.2884 H   0  0  0  0  0  0  0  0  0  0  0  0
   -3.9007  -25.1792   24.3614 H   0  0  0  0  0  0  0  0  0  0  0  0
   -3.4788  -26.8346   24.6262 H   0  0  0  0  0  0  0  0  0  0  0  0
   -1.8527  -25.2989   26.2738 H   0  0  0  0  0  0  0  0  0  0  0  0
   -2.9361  -26.2860   27.2839 H   0  0  0  0  0  0  0  0  0  0  0  0
   -5.1279  -23.0382   26.8339 H   0  0  0  0  0  0  0  0  0  0  0  0
   -4.8309  -22.4582   28.3605 H   0  0  0  0  0  0  0  0  0  0  0  0
   -7.1703  -22.7477   28.1165 H   0  0  0  0  0  0  0  0  0  0  0  0
   -6.3159  -24.2145   29.1261 H   0  0  0  0  0  0  0  0  0  0  0  0
   -7.9357  -24.8927   29.9669 H   0  0  0  0  0  0  0  0  0  0  0  0
  -11.9151  -24.0226   28.8938 H   0  0  0  0  0  0  0  0  0  0  0  0
  -13.0772  -23.7696   31.0413 H   0  0  0  0  0  0  0  0  0  0  0  0
  -12.1227  -24.8857   33.0593 H   0  0  0  0  0  0  0  0  0  0  0  0
   -9.2319  -26.7686   30.8650 H   0  0  0  0  0  0  0  0  0  0  0  0
   -1.7046  -23.5956   27.0992 H   0  0  0  0  0  0  0  0  0  0  0  0
   -1.1169  -23.8415   28.9047 H   0  0  0  0  0  0  0  0  0  0  0  0
    0.3401  -22.0833   27.3517 H   0  0  0  0  0  0  0  0  0  0  0  0
    1.1219  -22.4097   28.0887 H   0  0  0  0  0  0  0  0  0  0  0  0
    3.6830  -23.0487   25.3775 H   0  0  0  0  0  0  0  0  0  0  0  0
    5.3616  -21.5114   26.0977 H   0  0  0  0  0  0  0  0  0  0  0  0
    2.8937  -22.1634   29.4649 H   0  0  0  0  0  0  0  0  0  0  0  0
    3.7215  -21.3014   31.4580 H   0  0  0  0  0  0  0  0  0  0  0  0
    5.0612  -22.1627   31.7961 H   0  0  0  0  0  0  0  0  0  0  0  0
    5.2266  -19.2266   30.5894 H   0  0  0  0  0  0  0  0  0  0  0  0
    6.6765  -20.0916   30.9207 H   0  0  0  0  0  0  0  0  0  0  0  0
  1  2  1  0
  2  3  1  0
  3  4  1  0
  4  5  1  0
  5  6  1  0
  6  7  1  0
  7  8  2  0
  7  9  1  0
  9 10  2  0
 10 11  1  0
 11 12  2  0
 12 13  1  0
 13 14  2  0
  3 15  1  0
 15 16  1  0
 16 17  1  0
 17 18  2  0
 18 19  1  0
 19 20  2  0
 20 21  1  0
 21 22  2  0
 21 23  1  0
 23 24  1  0
 24 25  1  0
 14  9  1  0
 22 17  1  0
 25 20  1  0
  1 26  1  0
  1 27  1  0
  1 28  1  0
  2 29  1  0
  2 30  1  0
  4 31  1  0
  4 32  1  0
  5 33  1  0
  5 34  1  0
  6 35  1  0
 10 36  1  0
 11 37  1  0
 12 38  1  0
 14 39  1  0
 15 40  1  0
 15 41  1  0
 16 42  1  0
 16 43  1  0
 18 44  1  0
 19 45  1  0
 22 46  1  0
 23 47  1  0
 23 48  1  0
 24 49  1  0
 24 50  1  0
M  END
>  <Energy>  (659) 
1065.5101633428912

>  <compound_id>  (659) 
52848

>  <target_id>  (659) 
1

>  <reference_id>  (659) 
82

>  <inspiration_ids>  (659) 
[82, 89]

>  <energy_score>  (659) 
951.8538714035079

>  <distance_score>  (659) 
2.3745418314410274

>  <path>  (659) 
/opt/xchem-fragalysis-2/maxwin/BulkDock/SCRATCH/511021/C52848-P82/C52848-P82.minimised.mol

>  <scratch_subdir>  (659) 
/opt/xchem-fragalysis-2/maxwin/BulkDock/SCRATCH/511021/C52848-P82

>  <fragmenstein_runtime>  (659) 
27.79443860054016

>  <fragmenstein_outcome>  (659) 
too moved

>  <fragmenstein_mode>  (659) 
expansion

>  <fragmenstein_error>  (659) 


$$$$
C52862-P82
     RDKit          3D

 44 47  0  0  0  0  0  0  0  0999 V2000
   -4.0891  -23.2751   31.6573 C   0  0  0  0  0  0  0  0  0  0  0  0
   -3.7073  -22.1858   30.5118 C   0  0  0  0  0  0  0  0  0  0  0  0
   -1.9516  -21.5709   29.7992 C   0  0  0  0  0  0  0  0  0  0  0  0
   -1.6988  -23.2936   28.9930 N   0  0  0  0  0  0  0  0  0  0  0  0
   -3.4585  -23.8573   29.5768 N   0  0  0  0  0  0  0  0  0  0  0  0
   -4.4942  -24.0093   28.5836 C   0  0  0  0  0  0  0  0  0  0  0  0
   -6.5250  -24.3098   28.7230 C   0  0  0  0  0  0  0  0  0  0  0  0
   -7.7297  -25.5587   28.4959 C   0  0  0  0  0  0  0  0  0  0  0  0
   -9.2749  -25.9198   28.5785 C   0  0  0  0  0  0  0  0  0  0  0  0
   -9.9878  -25.4781   29.5883 C   0  0  0  0  0  0  0  0  0  0  0  0
   -9.0117  -24.8513   30.2055 C   0  0  0  0  0  0  0  0  0  0  0  0
   -7.4745  -24.3596   29.5821 N   0  0  0  0  0  0  0  0  0  0  0  0
   -3.0086  -24.0568   27.5057 N   0  0  0  0  0  0  0  0  0  0  0  0
   -1.4557  -23.3636   27.8154 C   0  0  0  0  0  0  0  0  0  0  0  0
    0.5025  -23.1031   27.4456 C   0  0  0  0  0  0  0  0  0  0  0  0
    1.3504  -24.0913   27.0211 C   0  0  0  0  0  0  0  0  0  0  0  0
    2.8848  -24.5904   26.5885 C   0  0  0  0  0  0  0  0  0  0  0  0
    3.7773  -23.7839   26.2367 C   0  0  0  0  0  0  0  0  0  0  0  0
    3.3816  -22.7688   27.0281 C   0  0  0  0  0  0  0  0  0  0  0  0
    1.8504  -22.4625   27.6486 C   0  0  0  0  0  0  0  0  0  0  0  0
    4.6525  -22.2214   27.4644 C   0  0  0  0  0  0  0  0  0  0  0  0
    5.1401  -21.7823   26.1064 C   0  0  0  0  0  0  0  0  0  0  0  0
    5.8210  -23.0928   25.6735 C   0  0  0  0  0  0  0  0  0  0  0  0
    4.9462  -24.1966   25.7734 O   0  0  0  0  0  0  0  0  0  0  0  0
   -4.4040  -22.5276   32.3547 H   0  0  0  0  0  0  0  0  0  0  0  0
   -3.3541  -23.8803   32.1695 H   0  0  0  0  0  0  0  0  0  0  0  0
   -5.0544  -23.7833   31.6190 H   0  0  0  0  0  0  0  0  0  0  0  0
   -4.4329  -21.1194   31.1889 H   0  0  0  0  0  0  0  0  0  0  0  0
   -4.3466  -22.2548   29.6535 H   0  0  0  0  0  0  0  0  0  0  0  0
   -1.8968  -20.9205   28.9333 H   0  0  0  0  0  0  0  0  0  0  0  0
   -0.9275  -21.8267   29.7354 H   0  0  0  0  0  0  0  0  0  0  0  0
   -7.3797  -26.5252   28.0112 H   0  0  0  0  0  0  0  0  0  0  0  0
   -9.6632  -26.6259   27.8662 H   0  0  0  0  0  0  0  0  0  0  0  0
  -10.9711  -25.7354   29.9142 H   0  0  0  0  0  0  0  0  0  0  0  0
   -9.1274  -24.5852   31.2617 H   0  0  0  0  0  0  0  0  0  0  0  0
    1.2352  -24.9730   27.6999 H   0  0  0  0  0  0  0  0  0  0  0  0
    3.2067  -25.5773   26.9107 H   0  0  0  0  0  0  0  0  0  0  0  0
    2.0828  -21.9361   28.5311 H   0  0  0  0  0  0  0  0  0  0  0  0
    5.1763  -23.0831   27.9068 H   0  0  0  0  0  0  0  0  0  0  0  0
    4.8633  -21.5703   28.2628 H   0  0  0  0  0  0  0  0  0  0  0  0
    5.7553  -20.9034   26.0095 H   0  0  0  0  0  0  0  0  0  0  0  0
    4.2764  -21.4168   25.5494 H   0  0  0  0  0  0  0  0  0  0  0  0
    6.2633  -23.1272   24.6950 H   0  0  0  0  0  0  0  0  0  0  0  0
    6.6304  -23.3368   26.3394 H   0  0  0  0  0  0  0  0  0  0  0  0
  1  2  1  0
  2  3  1  0
  3  4  1  0
  4  5  1  0
  5  6  2  0
  6  7  1  0
  7  8  2  0
  8  9  1  0
  9 10  2  0
 10 11  1  0
 11 12  2  0
  6 13  1  0
 13 14  2  0
 14 15  1  0
 15 16  2  0
 16 17  1  0
 17 18  2  0
 18 19  1  0
 19 20  2  0
 19 21  1  0
 21 22  1  0
 22 23  1  0
 23 24  1  0
 14  4  1  0
 20 15  1  0
 12  7  1  0
 24 18  1  0
  1 25  1  0
  1 26  1  0
  1 27  1  0
  2 28  1  0
  2 29  1  0
  3 30  1  0
  3 31  1  0
  8 32  1  0
  9 33  1  0
 10 34  1  0
 11 35  1  0
 16 36  1  0
 17 37  1  0
 20 38  1  0
 21 39  1  0
 21 40  1  0
 22 41  1  0
 22 42  1  0
 23 43  1  0
 23 44  1  0
M  END
>  <Energy>  (660) 
1413.3657552788816

>  <compound_id>  (660) 
52862

>  <target_id>  (660) 
1

>  <reference_id>  (660) 
82

>  <inspiration_ids>  (660) 
[82, 89]

>  <energy_score>  (660) 
1294.9589058908493

>  <distance_score>  (660) 
4.969713528515926

>  <path>  (660) 
/opt/xchem-fragalysis-2/maxwin/BulkDock/SCRATCH/511021/C52862-P82/C52862-P82.minimised.mol

>  <scratch_subdir>  (660) 
/opt/xchem-fragalysis-2/maxwin/BulkDock/SCRATCH/511021/C52862-P82

>  <fragmenstein_runtime>  (660) 
24.74973964691162

>  <fragmenstein_outcome>  (660) 
too moved

>  <fragmenstein_mode>  (660) 
expansion

>  <fragmenstein_error>  (660) 


$$$$
C52869-P82
     RDKit          3D

 41 42  0  0  0  0  0  0  0  0999 V2000
   -6.4916  -22.4866   28.1400 C   0  0  0  0  0  0  0  0  0  0  0  0
   -6.8598  -23.8002   28.1117 N   0  0  0  0  0  0  0  0  0  0  0  0
   -4.8930  -23.8082   28.6207 C   0  0  0  0  0  0  0  0  0  0  0  0
   -3.9348  -22.7333   29.9655 C   0  0  0  0  0  0  0  0  0  0  0  0
   -2.1964  -21.7907   30.0819 N   0  0  0  0  0  0  0  0  0  0  0  0
   -0.9116  -21.8446   29.1560 C   0  0  0  0  0  0  0  0  0  0  0  0
   -0.7996  -22.4146   28.1140 O   0  0  0  0  0  0  0  0  0  0  0  0
    0.8922  -21.1058   29.7244 C   0  0  0  0  0  0  0  0  0  0  0  0
    2.2264  -22.0326   28.3969 N   0  0  0  0  0  0  0  0  0  0  0  0
    3.9868  -22.5556   28.5448 C   0  0  0  0  0  0  0  0  0  0  0  0
    4.6977  -23.3512   27.6901 C   0  0  0  0  0  0  0  0  0  0  0  0
    4.1035  -23.9562   26.5640 C   0  0  0  0  0  0  0  0  0  0  0  0
    3.3207  -22.9563   26.2275 C   0  0  0  0  0  0  0  0  0  0  0  0
    2.1731  -22.8521   27.2532 C   0  0  0  0  0  0  0  0  0  0  0  0
    1.2408  -23.6345   27.0581 O   0  0  0  0  0  0  0  0  0  0  0  0
   -8.1521  -24.7442   29.1266 C   0  0  0  0  0  0  0  0  0  0  0  0
   -8.8267  -24.3779   30.0764 O   0  0  0  0  0  0  0  0  0  0  0  0
   -8.6631  -26.2051   28.6772 C   0  0  0  0  0  0  0  0  0  0  0  0
   -9.7888  -25.7694   27.8344 C   0  0  0  0  0  0  0  0  0  0  0  0
  -11.1618  -25.6003   28.1846 C   0  0  0  0  0  0  0  0  0  0  0  0
  -11.5733  -25.9849   29.4195 C   0  0  0  0  0  0  0  0  0  0  0  0
  -10.7873  -26.7068   30.1934 N   0  0  0  0  0  0  0  0  0  0  0  0
   -9.4667  -26.8043   29.7970 C   0  0  0  0  0  0  0  0  0  0  0  0
   -6.4144  -22.6114   27.0372 H   0  0  0  0  0  0  0  0  0  0  0  0
   -5.5809  -21.9569   27.8945 H   0  0  0  0  0  0  0  0  0  0  0  0
   -7.4022  -21.9205   27.9403 H   0  0  0  0  0  0  0  0  0  0  0  0
   -4.5072  -24.7906   28.8115 H   0  0  0  0  0  0  0  0  0  0  0  0
   -4.4475  -23.5372   27.6516 H   0  0  0  0  0  0  0  0  0  0  0  0
   -4.4996  -22.0452   29.4757 H   0  0  0  0  0  0  0  0  0  0  0  0
   -4.0549  -23.1956   30.9490 H   0  0  0  0  0  0  0  0  0  0  0  0
   -2.0233  -21.1711   30.8383 H   0  0  0  0  0  0  0  0  0  0  0  0
    0.4895  -20.0464   29.6630 H   0  0  0  0  0  0  0  0  0  0  0  0
    1.5219  -20.8229   30.5869 H   0  0  0  0  0  0  0  0  0  0  0  0
    4.4986  -22.2285   29.4571 H   0  0  0  0  0  0  0  0  0  0  0  0
    5.7031  -23.6808   27.7277 H   0  0  0  0  0  0  0  0  0  0  0  0
    3.7503  -24.9595   26.7917 H   0  0  0  0  0  0  0  0  0  0  0  0
    3.8180  -22.0347   25.9426 H   0  0  0  0  0  0  0  0  0  0  0  0
   -9.6551  -25.1053   26.9894 H   0  0  0  0  0  0  0  0  0  0  0  0
  -11.8275  -25.0347   27.5396 H   0  0  0  0  0  0  0  0  0  0  0  0
  -12.5347  -25.7017   29.8170 H   0  0  0  0  0  0  0  0  0  0  0  0
   -8.9898  -27.4570   30.5441 H   0  0  0  0  0  0  0  0  0  0  0  0
  1  2  1  0
  2  3  1  0
  3  4  1  0
  4  5  1  0
  5  6  1  0
  6  7  2  0
  6  8  1  0
  8  9  1  0
  9 10  1  0
 10 11  2  0
 11 12  1  0
 12 13  2  0
 13 14  1  0
 14 15  2  0
  2 16  1  0
 16 17  2  0
 16 18  1  0
 18 19  2  0
 19 20  1  0
 20 21  2  0
 21 22  1  0
 22 23  2  0
 14  9  1  0
 23 18  1  0
  1 24  1  0
  1 25  1  0
  1 26  1  0
  3 27  1  0
  3 28  1  0
  4 29  1  0
  4 30  1  0
  5 31  1  0
  8 32  1  0
  8 33  1  0
 10 34  1  0
 11 35  1  0
 12 36  1  0
 13 37  1  0
 19 38  1  0
 20 39  1  0
 21 40  1  0
 23 41  1  0
M  END
>  <Energy>  (661) 
987.92385254147837

>  <compound_id>  (661) 
52869

>  <target_id>  (661) 
1

>  <reference_id>  (661) 
82

>  <inspiration_ids>  (661) 
[82, 89]

>  <energy_score>  (661) 
894.5890600440074

>  <distance_score>  (661) 
4.752397402097096

>  <path>  (661) 
/opt/xchem-fragalysis-2/maxwin/BulkDock/SCRATCH/511021/C52869-P82/C52869-P82.minimised.mol

>  <scratch_subdir>  (661) 
/opt/xchem-fragalysis-2/maxwin/BulkDock/SCRATCH/511021/C52869-P82

>  <fragmenstein_runtime>  (661) 
26.90686869621277

>  <fragmenstein_outcome>  (661) 
too moved

>  <fragmenstein_mode>  (661) 
expansion

>  <fragmenstein_error>  (661) 


$$$$
C52870-P82
     RDKit          3D

 36 37  0  0  0  0  0  0  0  0999 V2000
   -9.5552  -23.6241   26.9758 O   0  0  0  0  0  0  0  0  0  0  0  0
   -9.1546  -23.9681   28.0086 C   0  0  0  0  0  0  0  0  0  0  0  0
   -7.3653  -23.7878   28.5265 N   0  0  0  0  0  0  0  0  0  0  0  0
   -5.8528  -23.0953   27.5814 C   0  0  0  0  0  0  0  0  0  0  0  0
   -4.0246  -23.8465   27.8765 C   0  0  0  0  0  0  0  0  0  0  0  0
   -1.9981  -23.5285   27.6903 C   0  0  0  0  0  0  0  0  0  0  0  0
   -0.7217  -22.2342   28.0971 N   0  0  0  0  0  0  0  0  0  0  0  0
    0.7578  -22.6483   27.6430 C   0  0  0  0  0  0  0  0  0  0  0  0
    1.9634  -22.1219   28.1629 C   0  0  0  0  0  0  0  0  0  0  0  0
    1.7080  -21.0899   29.7978 C   0  0  0  0  0  0  0  0  0  0  0  0
    0.4958  -20.3511   29.8621 C   0  0  0  0  0  0  0  0  0  0  0  0
   -0.8255  -21.2065   29.0944 C   0  0  0  0  0  0  0  0  0  0  0  0
   -1.8685  -21.0378   29.7143 O   0  0  0  0  0  0  0  0  0  0  0  0
   -9.8440  -24.4818   29.1276 N   0  0  0  0  0  0  0  0  0  0  0  0
  -11.2002  -24.6368   29.3615 C   0  0  0  0  0  0  0  0  0  0  0  0
  -11.7402  -23.5674   30.0813 C   0  0  0  0  0  0  0  0  0  0  0  0
  -11.9698  -23.7597   31.4427 C   0  0  0  0  0  0  0  0  0  0  0  0
  -11.5962  -24.9843   31.9580 C   0  0  0  0  0  0  0  0  0  0  0  0
  -11.3206  -25.9499   31.0101 C   0  0  0  0  0  0  0  0  0  0  0  0
  -10.1863  -27.3639   31.1897 Br  0  0  0  0  0  0  0  0  0  0  0  0
  -11.4937  -25.8352   29.7157 N   0  0  0  0  0  0  0  0  0  0  0  0
   -7.2297  -24.2221   29.4093 H   0  0  0  0  0  0  0  0  0  0  0  0
   -6.1038  -23.1191   26.5196 H   0  0  0  0  0  0  0  0  0  0  0  0
   -5.8302  -22.0494   27.8243 H   0  0  0  0  0  0  0  0  0  0  0  0
   -3.9069  -24.8479   27.4602 H   0  0  0  0  0  0  0  0  0  0  0  0
   -4.1736  -23.9841   28.9509 H   0  0  0  0  0  0  0  0  0  0  0  0
   -1.7972  -23.9466   26.7311 H   0  0  0  0  0  0  0  0  0  0  0  0
   -1.4632  -23.8316   28.5833 H   0  0  0  0  0  0  0  0  0  0  0  0
    0.8826  -23.5305   27.0185 H   0  0  0  0  0  0  0  0  0  0  0  0
    2.9538  -22.4290   27.7686 H   0  0  0  0  0  0  0  0  0  0  0  0
    2.4253  -21.0463   30.6031 H   0  0  0  0  0  0  0  0  0  0  0  0
    0.2073  -19.5698   30.5562 H   0  0  0  0  0  0  0  0  0  0  0  0
   -9.1756  -24.7571   29.8262 H   0  0  0  0  0  0  0  0  0  0  0  0
  -11.7435  -22.5665   29.6600 H   0  0  0  0  0  0  0  0  0  0  0  0
  -12.2708  -22.9390   32.0826 H   0  0  0  0  0  0  0  0  0  0  0  0
  -11.4916  -25.1595   33.0190 H   0  0  0  0  0  0  0  0  0  0  0  0
  1  2  2  0
  2  3  1  0
  3  4  1  0
  4  5  1  0
  5  6  1  0
  6  7  1  0
  7  8  1  0
  8  9  2  0
  9 10  1  0
 10 11  2  0
 11 12  1  0
 12 13  2  0
  2 14  1  0
 14 15  1  0
 15 16  2  0
 16 17  1  0
 17 18  2  0
 18 19  1  0
 19 20  1  0
 19 21  2  0
 12  7  1  0
 21 15  1  0
  3 22  1  0
  4 23  1  0
  4 24  1  0
  5 25  1  0
  5 26  1  0
  6 27  1  0
  6 28  1  0
  8 29  1  0
  9 30  1  0
 10 31  1  0
 11 32  1  0
 14 33  1  0
 16 34  1  0
 17 35  1  0
 18 36  1  0
M  END
>  <Energy>  (662) 
453.79656204324056

>  <compound_id>  (662) 
52870

>  <target_id>  (662) 
1

>  <reference_id>  (662) 
82

>  <inspiration_ids>  (662) 
[82, 89]

>  <energy_score>  (662) 
501.05396490197813

>  <distance_score>  (662) 
3.14893472126527

>  <path>  (662) 
/opt/xchem-fragalysis-2/maxwin/BulkDock/SCRATCH/511021/C52870-P82/C52870-P82.minimised.mol

>  <scratch_subdir>  (662) 
/opt/xchem-fragalysis-2/maxwin/BulkDock/SCRATCH/511021/C52870-P82

>  <fragmenstein_runtime>  (662) 
16.44527578353882

>  <fragmenstein_outcome>  (662) 
too moved

>  <fragmenstein_mode>  (662) 
expansion

>  <fragmenstein_error>  (662) 


$$$$
C52871-P82
     RDKit          3D

 44 45  0  0  0  0  0  0  0  0999 V2000
  -10.4056  -27.3177   31.1699 C   0  0  0  0  0  0  0  0  0  0  0  0
  -10.9334  -26.0125   31.5945 N   0  0  0  0  0  0  0  0  0  0  0  0
  -10.3014  -25.4568   32.7829 C   0  0  0  0  0  0  0  0  0  0  0  0
  -10.6298  -25.2158   30.4847 C   0  0  0  0  0  0  0  0  0  0  0  0
  -11.6465  -24.8033   29.6489 C   0  0  0  0  0  0  0  0  0  0  0  0
  -11.3005  -24.3342   28.4003 C   0  0  0  0  0  0  0  0  0  0  0  0
   -9.9506  -24.2609   28.0617 C   0  0  0  0  0  0  0  0  0  0  0  0
   -8.9635  -24.5963   29.0101 C   0  0  0  0  0  0  0  0  0  0  0  0
   -7.3757  -24.2984   29.0026 N   0  0  0  0  0  0  0  0  0  0  0  0
   -6.4418  -23.4397   27.9338 C   0  0  0  0  0  0  0  0  0  0  0  0
   -6.7629  -22.7749   26.9948 O   0  0  0  0  0  0  0  0  0  0  0  0
   -4.8312  -23.9387   28.4635 N   0  0  0  0  0  0  0  0  0  0  0  0
   -3.6046  -23.7840   27.8286 C   0  0  0  0  0  0  0  0  0  0  0  0
   -1.6190  -23.3507   28.0635 C   0  0  0  0  0  0  0  0  0  0  0  0
   -0.2819  -21.9612   28.0928 C   0  0  0  0  0  0  0  0  0  0  0  0
    1.6947  -22.2249   28.0634 N   0  0  0  0  0  0  0  0  0  0  0  0
    2.3778  -21.6404   29.6638 C   0  0  0  0  0  0  0  0  0  0  0  0
    3.8323  -22.0720   29.9664 C   0  0  0  0  0  0  0  0  0  0  0  0
    4.6229  -22.4868   28.7504 C   0  0  0  0  0  0  0  0  0  0  0  0
    4.2268  -22.6979   27.4967 C   0  0  0  0  0  0  0  0  0  0  0  0
    2.8054  -22.8427   27.1668 C   0  0  0  0  0  0  0  0  0  0  0  0
    2.6147  -23.7343   26.3509 O   0  0  0  0  0  0  0  0  0  0  0  0
   -9.3277  -25.1074   30.1808 N   0  0  0  0  0  0  0  0  0  0  0  0
  -10.8957  -27.6057   30.2325 H   0  0  0  0  0  0  0  0  0  0  0  0
   -9.3250  -27.3399   31.0139 H   0  0  0  0  0  0  0  0  0  0  0  0
  -10.6571  -28.1010   31.8784 H   0  0  0  0  0  0  0  0  0  0  0  0
  -10.5751  -26.0458   33.6620 H   0  0  0  0  0  0  0  0  0  0  0  0
  -10.6678  -24.4393   32.9639 H   0  0  0  0  0  0  0  0  0  0  0  0
   -9.2071  -25.4243   32.7225 H   0  0  0  0  0  0  0  0  0  0  0  0
  -12.6816  -24.9048   29.9510 H   0  0  0  0  0  0  0  0  0  0  0  0
  -12.0681  -24.0215   27.6991 H   0  0  0  0  0  0  0  0  0  0  0  0
   -9.7194  -23.8635   27.0912 H   0  0  0  0  0  0  0  0  0  0  0  0
   -6.8165  -24.6661   29.7090 H   0  0  0  0  0  0  0  0  0  0  0  0
   -4.8985  -24.5247   29.1935 H   0  0  0  0  0  0  0  0  0  0  0  0
   -4.1794  -23.2302   27.1162 H   0  0  0  0  0  0  0  0  0  0  0  0
   -3.4997  -24.8057   27.3996 H   0  0  0  0  0  0  0  0  0  0  0  0
   -1.7537  -23.7120   27.0624 H   0  0  0  0  0  0  0  0  0  0  0  0
   -1.1420  -23.8775   28.8488 H   0  0  0  0  0  0  0  0  0  0  0  0
   -0.5256  -21.5445   29.1005 H   0  0  0  0  0  0  0  0  0  0  0  0
   -0.6204  -20.9868   27.7361 H   0  0  0  0  0  0  0  0  0  0  0  0
    1.7640  -20.9489   30.2642 H   0  0  0  0  0  0  0  0  0  0  0  0
    4.3610  -21.8182   30.8956 H   0  0  0  0  0  0  0  0  0  0  0  0
    5.6028  -22.2794   28.9443 H   0  0  0  0  0  0  0  0  0  0  0  0
    4.9208  -22.8814   26.6846 H   0  0  0  0  0  0  0  0  0  0  0  0
  1  2  1  0
  2  3  1  0
  2  4  1  0
  4  5  2  0
  5  6  1  0
  6  7  2  0
  7  8  1  0
  8  9  1  0
  9 10  1  0
 10 11  2  0
 10 12  1  0
 12 13  1  0
 13 14  1  0
 14 15  1  0
 15 16  1  0
 16 17  1  0
 17 18  2  0
 18 19  1  0
 19 20  2  0
 20 21  1  0
 21 22  2  0
  8 23  2  0
 23  4  1  0
 21 16  1  0
  1 24  1  0
  1 25  1  0
  1 26  1  0
  3 27  1  0
  3 28  1  0
  3 29  1  0
  5 30  1  0
  6 31  1  0
  7 32  1  0
  9 33  1  0
 12 34  1  0
 13 35  1  0
 13 36  1  0
 14 37  1  0
 14 38  1  0
 15 39  1  0
 15 40  1  0
 17 41  1  0
 18 42  1  0
 19 43  1  0
 20 44  1  0
M  END
>  <Energy>  (663) 
363.07774168524372

>  <compound_id>  (663) 
52871

>  <target_id>  (663) 
1

>  <reference_id>  (663) 
82

>  <inspiration_ids>  (663) 
[82, 89]

>  <energy_score>  (663) 
422.7449086712129

>  <distance_score>  (663) 
3.597125393534931

>  <path>  (663) 
/opt/xchem-fragalysis-2/maxwin/BulkDock/SCRATCH/511021/C52871-P82/C52871-P82.minimised.mol

>  <scratch_subdir>  (663) 
/opt/xchem-fragalysis-2/maxwin/BulkDock/SCRATCH/511021/C52871-P82

>  <fragmenstein_runtime>  (663) 
24.754910945892334

>  <fragmenstein_outcome>  (663) 
too moved

>  <fragmenstein_mode>  (663) 
expansion

>  <fragmenstein_error>  (663) 


$$$$
C52872-P82
     RDKit          3D

 40 41  0  0  0  0  0  0  0  0999 V2000
  -11.3031  -24.3042   26.2142 C   0  0  0  0  0  0  0  0  0  0  0  0
  -10.1413  -24.0761   27.0169 O   0  0  0  0  0  0  0  0  0  0  0  0
  -10.2129  -24.4228   28.3208 C   0  0  0  0  0  0  0  0  0  0  0  0
  -11.4760  -24.5275   28.9493 C   0  0  0  0  0  0  0  0  0  0  0  0
  -11.6229  -24.9637   30.2568 C   0  0  0  0  0  0  0  0  0  0  0  0
  -10.4953  -25.3546   30.9086 C   0  0  0  0  0  0  0  0  0  0  0  0
   -9.2795  -25.2094   30.3595 N   0  0  0  0  0  0  0  0  0  0  0  0
   -9.0803  -24.6602   29.1103 C   0  0  0  0  0  0  0  0  0  0  0  0
   -7.4773  -24.3758   29.0847 N   0  0  0  0  0  0  0  0  0  0  0  0
   -6.5015  -23.4496   28.0084 C   0  0  0  0  0  0  0  0  0  0  0  0
   -6.8078  -22.7357   27.0951 O   0  0  0  0  0  0  0  0  0  0  0  0
   -4.9078  -24.0034   28.5510 N   0  0  0  0  0  0  0  0  0  0  0  0
   -3.5658  -23.8366   27.9341 C   0  0  0  0  0  0  0  0  0  0  0  0
   -1.5147  -23.2996   28.2014 C   0  0  0  0  0  0  0  0  0  0  0  0
    0.3973  -22.8018   27.6398 C   0  0  0  0  0  0  0  0  0  0  0  0
    2.1248  -22.2414   28.0868 N   0  0  0  0  0  0  0  0  0  0  0  0
    2.6684  -21.8067   29.7846 C   0  0  0  0  0  0  0  0  0  0  0  0
    4.0669  -22.0804   30.0526 C   0  0  0  0  0  0  0  0  0  0  0  0
    4.8426  -22.4011   28.8730 C   0  0  0  0  0  0  0  0  0  0  0  0
    4.5651  -22.7468   27.6205 C   0  0  0  0  0  0  0  0  0  0  0  0
    3.2013  -22.8745   27.2124 C   0  0  0  0  0  0  0  0  0  0  0  0
    2.9943  -23.6861   26.3232 O   0  0  0  0  0  0  0  0  0  0  0  0
  -11.7167  -25.3066   26.3715 H   0  0  0  0  0  0  0  0  0  0  0  0
  -12.0541  -23.5271   26.3888 H   0  0  0  0  0  0  0  0  0  0  0  0
  -11.0059  -24.2407   25.1642 H   0  0  0  0  0  0  0  0  0  0  0  0
  -12.3878  -24.2454   28.4335 H   0  0  0  0  0  0  0  0  0  0  0  0
  -12.5949  -25.0037   30.7295 H   0  0  0  0  0  0  0  0  0  0  0  0
  -10.5143  -25.7666   31.9124 H   0  0  0  0  0  0  0  0  0  0  0  0
   -6.9307  -24.7811   29.7709 H   0  0  0  0  0  0  0  0  0  0  0  0
   -5.0073  -24.6184   29.2444 H   0  0  0  0  0  0  0  0  0  0  0  0
   -3.6561  -23.7980   29.0982 H   0  0  0  0  0  0  0  0  0  0  0  0
   -4.1383  -23.2637   27.2302 H   0  0  0  0  0  0  0  0  0  0  0  0
   -1.0963  -23.9082   28.9486 H   0  0  0  0  0  0  0  0  0  0  0  0
   -1.7835  -23.6836   27.2209 H   0  0  0  0  0  0  0  0  0  0  0  0
    0.7117  -23.4995   26.8709 H   0  0  0  0  0  0  0  0  0  0  0  0
    0.0453  -21.7919   27.6450 H   0  0  0  0  0  0  0  0  0  0  0  0
    2.0237  -21.0994   30.3367 H   0  0  0  0  0  0  0  0  0  0  0  0
    4.5110  -21.7803   31.0067 H   0  0  0  0  0  0  0  0  0  0  0  0
    5.6748  -21.8018   29.0163 H   0  0  0  0  0  0  0  0  0  0  0  0
    5.2745  -22.8400   26.8098 H   0  0  0  0  0  0  0  0  0  0  0  0
  1  2  1  0
  2  3  1  0
  3  4  2  0
  4  5  1  0
  5  6  2  0
  6  7  1  0
  7  8  2  0
  8  9  1  0
  9 10  1  0
 10 11  2  0
 10 12  1  0
 12 13  1  0
 13 14  1  0
 14 15  1  0
 15 16  1  0
 16 17  1  0
 17 18  2  0
 18 19  1  0
 19 20  2  0
 20 21  1  0
 21 22  2  0
  8  3  1  0
 21 16  1  0
  1 23  1  0
  1 24  1  0
  1 25  1  0
  4 26  1  0
  5 27  1  0
  6 28  1  0
  9 29  1  0
 12 30  1  0
 13 31  1  0
 13 32  1  0
 14 33  1  0
 14 34  1  0
 15 35  1  0
 15 36  1  0
 17 37  1  0
 18 38  1  0
 19 39  1  0
 20 40  1  0
M  END
>  <Energy>  (664) 
574.36662888710453

>  <compound_id>  (664) 
52872

>  <target_id>  (664) 
1

>  <reference_id>  (664) 
82

>  <inspiration_ids>  (664) 
[82, 89]

>  <energy_score>  (664) 
585.6656179406453

>  <distance_score>  (664) 
3.3893700407503116

>  <path>  (664) 
/opt/xchem-fragalysis-2/maxwin/BulkDock/SCRATCH/511021/C52872-P82/C52872-P82.minimised.mol

>  <scratch_subdir>  (664) 
/opt/xchem-fragalysis-2/maxwin/BulkDock/SCRATCH/511021/C52872-P82

>  <fragmenstein_runtime>  (664) 
24.492867708206177

>  <fragmenstein_outcome>  (664) 
too moved

>  <fragmenstein_mode>  (664) 
expansion

>  <fragmenstein_error>  (664) 


$$$$
C52873-P82
     RDKit          3D

 44 45  0  0  0  0  0  0  0  0999 V2000
  -11.7787  -21.9761   30.8402 C   0  0  0  0  0  0  0  0  0  0  0  0
  -11.0687  -21.5923   32.1151 N   0  0  0  0  0  0  0  0  0  0  0  0
  -12.0084  -21.2316   33.2035 C   0  0  0  0  0  0  0  0  0  0  0  0
  -10.2729  -22.7601   32.5690 C   0  0  0  0  0  0  0  0  0  0  0  0
  -11.0585  -23.9734   32.5813 C   0  0  0  0  0  0  0  0  0  0  0  0
  -10.4400  -25.1834   32.6014 C   0  0  0  0  0  0  0  0  0  0  0  0
   -9.0871  -25.1253   32.6330 C   0  0  0  0  0  0  0  0  0  0  0  0
   -8.3289  -23.9968   32.8021 N   0  0  0  0  0  0  0  0  0  0  0  0
   -8.6825  -22.7015   32.9253 C   0  0  0  0  0  0  0  0  0  0  0  0
   -7.4041  -21.2074   32.8794 N   0  0  0  0  0  0  0  0  0  0  0  0
   -5.5310  -21.1723   32.5298 C   0  0  0  0  0  0  0  0  0  0  0  0
   -4.9380  -22.1394   32.3843 O   0  0  0  0  0  0  0  0  0  0  0  0
   -4.7454  -19.8018   32.5951 N   0  0  0  0  0  0  0  0  0  0  0  0
   -2.7799  -19.3931   32.6535 C   0  0  0  0  0  0  0  0  0  0  0  0
   -1.5270  -19.9849   34.0002 C   0  0  0  0  0  0  0  0  0  0  0  0
    0.2659  -20.2760   33.9008 C   0  0  0  0  0  0  0  0  0  0  0  0
    1.6876  -20.8568   33.1408 N   0  0  0  0  0  0  0  0  0  0  0  0
    2.8240  -20.9135   33.8072 C   0  0  0  0  0  0  0  0  0  0  0  0
    3.9158  -21.1790   33.0941 C   0  0  0  0  0  0  0  0  0  0  0  0
    4.2327  -21.4610   31.8284 C   0  0  0  0  0  0  0  0  0  0  0  0
    3.1737  -21.3994   31.1265 C   0  0  0  0  0  0  0  0  0  0  0  0
    1.9926  -20.7349   31.4567 C   0  0  0  0  0  0  0  0  0  0  0  0
    1.2335  -20.2094   30.6464 O   0  0  0  0  0  0  0  0  0  0  0  0
  -11.4028  -22.8857   30.3548 H   0  0  0  0  0  0  0  0  0  0  0  0
  -11.6279  -21.1893   30.1013 H   0  0  0  0  0  0  0  0  0  0  0  0
  -12.8544  -22.1196   30.9885 H   0  0  0  0  0  0  0  0  0  0  0  0
  -11.9959  -21.9186   34.0538 H   0  0  0  0  0  0  0  0  0  0  0  0
  -13.0491  -21.2129   32.8669 H   0  0  0  0  0  0  0  0  0  0  0  0
  -11.7534  -20.2346   33.5753 H   0  0  0  0  0  0  0  0  0  0  0  0
  -12.1396  -23.9533   32.4669 H   0  0  0  0  0  0  0  0  0  0  0  0
  -10.9644  -26.1201   32.5069 H   0  0  0  0  0  0  0  0  0  0  0  0
   -8.4722  -26.0039   32.5017 H   0  0  0  0  0  0  0  0  0  0  0  0
   -7.7475  -20.2642   32.9608 H   0  0  0  0  0  0  0  0  0  0  0  0
   -5.4443  -19.0481   32.6364 H   0  0  0  0  0  0  0  0  0  0  0  0
   -2.5587  -18.3108   32.5602 H   0  0  0  0  0  0  0  0  0  0  0  0
   -2.2383  -19.6498   31.7507 H   0  0  0  0  0  0  0  0  0  0  0  0
   -1.5100  -19.0936   34.6569 H   0  0  0  0  0  0  0  0  0  0  0  0
   -1.6534  -20.7287   34.7456 H   0  0  0  0  0  0  0  0  0  0  0  0
    0.0168  -21.2718   34.1751 H   0  0  0  0  0  0  0  0  0  0  0  0
    0.6221  -19.4334   34.5136 H   0  0  0  0  0  0  0  0  0  0  0  0
    2.8312  -20.6542   34.8524 H   0  0  0  0  0  0  0  0  0  0  0  0
    4.9094  -21.3470   33.3981 H   0  0  0  0  0  0  0  0  0  0  0  0
    5.0023  -22.1104   31.5459 H   0  0  0  0  0  0  0  0  0  0  0  0
    3.2062  -21.8983   30.1863 H   0  0  0  0  0  0  0  0  0  0  0  0
  1  2  1  0
  2  3  1  0
  2  4  1  0
  4  5  2  0
  5  6  1  0
  6  7  2  0
  7  8  1  0
  8  9  2  0
  9 10  1  0
 10 11  1  0
 11 12  2  0
 11 13  1  0
 13 14  1  0
 14 15  1  0
 15 16  1  0
 16 17  1  0
 17 18  1  0
 18 19  2  0
 19 20  1  0
 20 21  2  0
 21 22  1  0
 22 23  2  0
  9  4  1  0
 22 17  1  0
  1 24  1  0
  1 25  1  0
  1 26  1  0
  3 27  1  0
  3 28  1  0
  3 29  1  0
  5 30  1  0
  6 31  1  0
  7 32  1  0
 10 33  1  0
 13 34  1  0
 14 35  1  0
 14 36  1  0
 15 37  1  0
 15 38  1  0
 16 39  1  0
 16 40  1  0
 18 41  1  0
 19 42  1  0
 20 43  1  0
 21 44  1  0
M  END
>  <Energy>  (665) 
561.87375789876262

>  <compound_id>  (665) 
52873

>  <target_id>  (665) 
1

>  <reference_id>  (665) 
82

>  <inspiration_ids>  (665) 
[82, 89]

>  <energy_score>  (665) 
543.4745208509222

>  <distance_score>  (665) 
4.881156240450944

>  <path>  (665) 
/opt/xchem-fragalysis-2/maxwin/BulkDock/SCRATCH/511021/C52873-P82/C52873-P82.minimised.mol

>  <scratch_subdir>  (665) 
/opt/xchem-fragalysis-2/maxwin/BulkDock/SCRATCH/511021/C52873-P82

>  <fragmenstein_runtime>  (665) 
30.045682907104492

>  <fragmenstein_outcome>  (665) 
too moved

>  <fragmenstein_mode>  (665) 
expansion

>  <fragmenstein_error>  (665) 


$$$$
C52874-P82
     RDKit          3D

 36 37  0  0  0  0  0  0  0  0999 V2000
   -9.4039  -24.0945   27.7143 O   0  0  0  0  0  0  0  0  0  0  0  0
   -8.6717  -24.3983   28.6268 C   0  0  0  0  0  0  0  0  0  0  0  0
   -6.8421  -24.1582   28.8183 N   0  0  0  0  0  0  0  0  0  0  0  0
   -5.4991  -23.2262   27.6835 C   0  0  0  0  0  0  0  0  0  0  0  0
   -3.5177  -23.8974   27.7273 C   0  0  0  0  0  0  0  0  0  0  0  0
   -1.4393  -23.2536   28.0686 C   0  0  0  0  0  0  0  0  0  0  0  0
    0.4546  -23.0601   27.3610 N   0  0  0  0  0  0  0  0  0  0  0  0
    1.9406  -22.3275   27.7468 C   0  0  0  0  0  0  0  0  0  0  0  0
    3.2851  -22.4729   27.3071 C   0  0  0  0  0  0  0  0  0  0  0  0
    3.7915  -23.2237   26.2907 C   0  0  0  0  0  0  0  0  0  0  0  0
    2.9035  -24.1647   26.2384 C   0  0  0  0  0  0  0  0  0  0  0  0
    1.3894  -24.1021   26.9947 C   0  0  0  0  0  0  0  0  0  0  0  0
    1.4672  -25.1540   27.6994 O   0  0  0  0  0  0  0  0  0  0  0  0
   -8.9899  -24.9796   29.9716 N   0  0  0  0  0  0  0  0  0  0  0  0
  -10.2017  -25.2415   30.5834 C   0  0  0  0  0  0  0  0  0  0  0  0
  -11.2863  -24.4021   30.3756 C   0  0  0  0  0  0  0  0  0  0  0  0
  -12.0456  -24.0767   31.5063 C   0  0  0  0  0  0  0  0  0  0  0  0
  -13.2492  -22.6261   31.5115 Br  0  0  0  0  0  0  0  0  0  0  0  0
  -11.8164  -24.6770   32.7322 C   0  0  0  0  0  0  0  0  0  0  0  0
  -10.7930  -25.5808   32.7920 C   0  0  0  0  0  0  0  0  0  0  0  0
   -9.9887  -25.8575   31.7551 N   0  0  0  0  0  0  0  0  0  0  0  0
   -6.5401  -24.4433   29.7239 H   0  0  0  0  0  0  0  0  0  0  0  0
   -5.5349  -22.1892   27.9633 H   0  0  0  0  0  0  0  0  0  0  0  0
   -5.8851  -23.1900   26.6593 H   0  0  0  0  0  0  0  0  0  0  0  0
   -3.9175  -24.0634   28.7782 H   0  0  0  0  0  0  0  0  0  0  0  0
   -3.4828  -24.9260   27.3220 H   0  0  0  0  0  0  0  0  0  0  0  0
   -1.2920  -22.2202   28.5013 H   0  0  0  0  0  0  0  0  0  0  0  0
   -1.1075  -23.8180   28.9026 H   0  0  0  0  0  0  0  0  0  0  0  0
    2.0240  -21.9067   28.7145 H   0  0  0  0  0  0  0  0  0  0  0  0
    4.2017  -22.1794   27.8264 H   0  0  0  0  0  0  0  0  0  0  0  0
    4.8063  -23.2666   25.9319 H   0  0  0  0  0  0  0  0  0  0  0  0
    3.2793  -25.0947   25.8546 H   0  0  0  0  0  0  0  0  0  0  0  0
   -8.1546  -25.1802   30.4418 H   0  0  0  0  0  0  0  0  0  0  0  0
  -11.4051  -23.8420   29.4553 H   0  0  0  0  0  0  0  0  0  0  0  0
  -12.3996  -24.4410   33.6151 H   0  0  0  0  0  0  0  0  0  0  0  0
  -10.5539  -26.0954   33.7127 H   0  0  0  0  0  0  0  0  0  0  0  0
  1  2  2  0
  2  3  1  0
  3  4  1  0
  4  5  1  0
  5  6  1  0
  6  7  1  0
  7  8  1  0
  8  9  2  0
  9 10  1  0
 10 11  2  0
 11 12  1  0
 12 13  2  0
  2 14  1  0
 14 15  1  0
 15 16  2  0
 16 17  1  0
 17 18  1  0
 17 19  2  0
 19 20  1  0
 20 21  2  0
 12  7  1  0
 21 15  1  0
  3 22  1  0
  4 23  1  0
  4 24  1  0
  5 25  1  0
  5 26  1  0
  6 27  1  0
  6 28  1  0
  8 29  1  0
  9 30  1  0
 10 31  1  0
 11 32  1  0
 14 33  1  0
 16 34  1  0
 19 35  1  0
 20 36  1  0
M  END
>  <Energy>  (666) 
607.74375126232292

>  <compound_id>  (666) 
52874

>  <target_id>  (666) 
1

>  <reference_id>  (666) 
82

>  <inspiration_ids>  (666) 
[82, 89]

>  <energy_score>  (666) 
668.9010185950607

>  <distance_score>  (666) 
3.4643834349311073

>  <path>  (666) 
/opt/xchem-fragalysis-2/maxwin/BulkDock/SCRATCH/511021/C52874-P82/C52874-P82.minimised.mol

>  <scratch_subdir>  (666) 
/opt/xchem-fragalysis-2/maxwin/BulkDock/SCRATCH/511021/C52874-P82

>  <fragmenstein_runtime>  (666) 
20.11288857460022

>  <fragmenstein_outcome>  (666) 
too moved

>  <fragmenstein_mode>  (666) 
expansion

>  <fragmenstein_error>  (666) 


$$$$
C52875-P82
     RDKit          3D

 47 48  0  0  0  0  0  0  0  0999 V2000
   -4.3105  -23.3771   29.5486 C   0  0  0  0  0  0  0  0  0  0  0  0
   -3.9201  -22.4132   30.9341 C   0  0  0  0  0  0  0  0  0  0  0  0
   -4.4331  -20.7948   32.1189 N   0  0  0  0  0  0  0  0  0  0  0  0
   -5.8132  -20.5620   32.0519 C   0  0  0  0  0  0  0  0  0  0  0  0
   -6.1337  -19.8526   31.2732 O   0  0  0  0  0  0  0  0  0  0  0  0
   -7.3786  -21.0882   33.1826 C   0  0  0  0  0  0  0  0  0  0  0  0
   -7.9863  -22.4408   33.4621 C   0  0  0  0  0  0  0  0  0  0  0  0
   -9.3356  -23.1365   32.8081 C   0  0  0  0  0  0  0  0  0  0  0  0
  -10.4333  -22.3751   32.3470 N   0  0  0  0  0  0  0  0  0  0  0  0
  -10.2039  -20.9829   32.3949 C   0  0  0  0  0  0  0  0  0  0  0  0
   -8.8521  -20.3704   32.9912 C   0  0  0  0  0  0  0  0  0  0  0  0
   -2.7266  -19.9213   31.1288 C   0  0  0  0  0  0  0  0  0  0  0  0
   -1.7725  -20.9852   29.7318 C   0  0  0  0  0  0  0  0  0  0  0  0
   -0.6302  -19.6399   31.2960 C   0  0  0  0  0  0  0  0  0  0  0  0
    1.0170  -20.3534   30.4974 N   0  0  0  0  0  0  0  0  0  0  0  0
    2.5733  -20.9063   31.2252 C   0  0  0  0  0  0  0  0  0  0  0  0
    2.9176  -20.8399   32.4182 O   0  0  0  0  0  0  0  0  0  0  0  0
    4.0089  -21.9544   30.1115 C   0  0  0  0  0  0  0  0  0  0  0  0
    4.3826  -22.5437   28.3210 N   0  0  0  0  0  0  0  0  0  0  0  0
    4.5281  -23.9127   27.9218 C   0  0  0  0  0  0  0  0  0  0  0  0
    4.1063  -24.3799   26.7361 C   0  0  0  0  0  0  0  0  0  0  0  0
    5.0888  -23.9767   25.8002 C   0  0  0  0  0  0  0  0  0  0  0  0
    5.3978  -22.6973   25.9921 C   0  0  0  0  0  0  0  0  0  0  0  0
    4.7177  -21.8190   27.0635 C   0  0  0  0  0  0  0  0  0  0  0  0
    4.7267  -20.6140   26.7990 O   0  0  0  0  0  0  0  0  0  0  0  0
   -4.6222  -22.8964   28.5774 H   0  0  0  0  0  0  0  0  0  0  0  0
   -5.0252  -24.1657   29.2281 H   0  0  0  0  0  0  0  0  0  0  0  0
   -3.5213  -23.9905   29.5874 H   0  0  0  0  0  0  0  0  0  0  0  0
   -3.2301  -22.0021   30.3075 H   0  0  0  0  0  0  0  0  0  0  0  0
   -3.8851  -23.2192   31.6797 H   0  0  0  0  0  0  0  0  0  0  0  0
   -7.7604  -22.8752   34.3834 H   0  0  0  0  0  0  0  0  0  0  0  0
   -9.5266  -24.1996   32.9471 H   0  0  0  0  0  0  0  0  0  0  0  0
  -11.0912  -20.3827   32.3025 H   0  0  0  0  0  0  0  0  0  0  0  0
   -8.8898  -19.3012   33.2382 H   0  0  0  0  0  0  0  0  0  0  0  0
   -2.4271  -19.4715   32.1373 H   0  0  0  0  0  0  0  0  0  0  0  0
   -2.0651  -20.6998   28.7693 H   0  0  0  0  0  0  0  0  0  0  0  0
   -1.3492  -21.9503   29.7356 H   0  0  0  0  0  0  0  0  0  0  0  0
   -0.8406  -20.4945   29.3888 H   0  0  0  0  0  0  0  0  0  0  0  0
   -0.6276  -20.2156   32.1797 H   0  0  0  0  0  0  0  0  0  0  0  0
   -0.4244  -18.6295   30.9966 H   0  0  0  0  0  0  0  0  0  0  0  0
    1.0520  -20.4484   29.5947 H   0  0  0  0  0  0  0  0  0  0  0  0
    4.6412  -22.5090   30.8040 H   0  0  0  0  0  0  0  0  0  0  0  0
    4.9158  -21.3312   30.0680 H   0  0  0  0  0  0  0  0  0  0  0  0
    5.4958  -24.3307   28.1679 H   0  0  0  0  0  0  0  0  0  0  0  0
    3.1319  -24.0918   26.3527 H   0  0  0  0  0  0  0  0  0  0  0  0
    5.5528  -24.6186   25.0723 H   0  0  0  0  0  0  0  0  0  0  0  0
    6.1618  -22.2149   25.4230 H   0  0  0  0  0  0  0  0  0  0  0  0
  1  2  1  0
  2  3  1  0
  3  4  1  0
  4  5  2  0
  4  6  1  0
  6  7  2  0
  7  8  1  0
  8  9  2  0
  9 10  1  0
 10 11  2  0
  3 12  1  0
 12 13  1  0
 12 14  1  0
 14 15  1  0
 15 16  1  0
 16 17  2  0
 16 18  1  0
 18 19  1  0
 19 20  1  0
 20 21  2  0
 21 22  1  0
 22 23  2  0
 23 24  1  0
 24 25  2  0
 11  6  1  0
 24 19  1  0
  1 26  1  0
  1 27  1  0
  1 28  1  0
  2 29  1  0
  2 30  1  0
  7 31  1  0
  8 32  1  0
 10 33  1  0
 11 34  1  0
 12 35  1  0
 13 36  1  0
 13 37  1  0
 13 38  1  0
 14 39  1  0
 14 40  1  0
 15 41  1  0
 18 42  1  0
 18 43  1  0
 20 44  1  0
 21 45  1  0
 22 46  1  0
 23 47  1  0
M  END
>  <Energy>  (667) 
1321.1868624413694

>  <compound_id>  (667) 
52875

>  <target_id>  (667) 
1

>  <reference_id>  (667) 
82

>  <inspiration_ids>  (667) 
[82, 89]

>  <energy_score>  (667) 
1249.9331183697536

>  <distance_score>  (667) 
4.438887654978606

>  <path>  (667) 
/opt/xchem-fragalysis-2/maxwin/BulkDock/SCRATCH/511021/C52875-P82/C52875-P82.minimised.mol

>  <scratch_subdir>  (667) 
/opt/xchem-fragalysis-2/maxwin/BulkDock/SCRATCH/511021/C52875-P82

>  <fragmenstein_runtime>  (667) 
28.135408401489258

>  <fragmenstein_outcome>  (667) 
too moved

>  <fragmenstein_mode>  (667) 
expansion

>  <fragmenstein_error>  (667) 


$$$$
C52876-P82
     RDKit          3D

 43 45  0  0  0  0  0  0  0  0999 V2000
  -11.0110  -25.9560   29.7746 C   0  0  0  0  0  0  0  0  0  0  0  0
  -10.9137  -25.1554   28.6019 O   0  0  0  0  0  0  0  0  0  0  0  0
   -9.6697  -24.6311   28.4570 C   0  0  0  0  0  0  0  0  0  0  0  0
   -9.4373  -23.4840   27.7319 C   0  0  0  0  0  0  0  0  0  0  0  0
   -7.8784  -22.7663   27.6519 C   0  0  0  0  0  0  0  0  0  0  0  0
   -6.7697  -23.3785   28.1715 C   0  0  0  0  0  0  0  0  0  0  0  0
   -4.9647  -23.1526   28.1091 C   0  0  0  0  0  0  0  0  0  0  0  0
   -3.4904  -23.6314   29.4226 C   0  0  0  0  0  0  0  0  0  0  0  0
   -1.5575  -23.5172   28.4593 N   0  0  0  0  0  0  0  0  0  0  0  0
   -1.4819  -21.8007   29.2071 C   0  0  0  0  0  0  0  0  0  0  0  0
    0.0562  -24.4106   28.8419 C   0  0  0  0  0  0  0  0  0  0  0  0
    0.3612  -25.1465   29.7882 O   0  0  0  0  0  0  0  0  0  0  0  0
    1.3589  -24.1722   27.2777 C   0  0  0  0  0  0  0  0  0  0  0  0
    2.4154  -25.5586   27.6829 C   0  0  0  0  0  0  0  0  0  0  0  0
    3.7887  -26.1121   27.8531 C   0  0  0  0  0  0  0  0  0  0  0  0
    4.7348  -25.4323   27.1366 C   0  0  0  0  0  0  0  0  0  0  0  0
    4.2504  -24.2313   26.5695 C   0  0  0  0  0  0  0  0  0  0  0  0
    2.7831  -23.5868   26.7150 C   0  0  0  0  0  0  0  0  0  0  0  0
    3.2536  -22.3758   27.2197 O   0  0  0  0  0  0  0  0  0  0  0  0
    4.3996  -22.0377   26.4088 C   0  0  0  0  0  0  0  0  0  0  0  0
    5.2636  -23.2279   26.2241 C   0  0  0  0  0  0  0  0  0  0  0  0
   -7.3399  -24.3634   29.0069 C   0  0  0  0  0  0  0  0  0  0  0  0
   -8.6294  -25.0264   29.1855 N   0  0  0  0  0  0  0  0  0  0  0  0
  -10.8754  -25.3497   30.6773 H   0  0  0  0  0  0  0  0  0  0  0  0
  -10.3091  -26.7940   29.7610 H   0  0  0  0  0  0  0  0  0  0  0  0
  -12.0155  -26.3730   29.7968 H   0  0  0  0  0  0  0  0  0  0  0  0
  -10.3592  -23.0063   27.3929 H   0  0  0  0  0  0  0  0  0  0  0  0
   -7.7096  -21.7637   27.3109 H   0  0  0  0  0  0  0  0  0  0  0  0
   -5.1370  -22.1040   27.9999 H   0  0  0  0  0  0  0  0  0  0  0  0
   -4.6418  -23.5122   27.1525 H   0  0  0  0  0  0  0  0  0  0  0  0
   -4.0085  -24.5371   29.0742 H   0  0  0  0  0  0  0  0  0  0  0  0
   -3.8011  -23.1241   30.3600 H   0  0  0  0  0  0  0  0  0  0  0  0
   -1.4218  -21.0958   28.3668 H   0  0  0  0  0  0  0  0  0  0  0  0
   -2.1470  -21.4252   29.9639 H   0  0  0  0  0  0  0  0  0  0  0  0
   -0.4676  -21.5265   29.3548 H   0  0  0  0  0  0  0  0  0  0  0  0
    2.7546  -25.6120   26.6315 H   0  0  0  0  0  0  0  0  0  0  0  0
    3.9737  -26.9825   28.4652 H   0  0  0  0  0  0  0  0  0  0  0  0
    5.7765  -25.7182   27.1326 H   0  0  0  0  0  0  0  0  0  0  0  0
    4.8727  -21.1500   26.8122 H   0  0  0  0  0  0  0  0  0  0  0  0
    3.9693  -21.6685   25.4961 H   0  0  0  0  0  0  0  0  0  0  0  0
    5.7130  -23.3879   25.2471 H   0  0  0  0  0  0  0  0  0  0  0  0
    6.0474  -23.3246   26.9583 H   0  0  0  0  0  0  0  0  0  0  0  0
   -6.6595  -24.5387   29.8053 H   0  0  0  0  0  0  0  0  0  0  0  0
  1  2  1  0
  2  3  1  0
  3  4  2  0
  4  5  1  0
  5  6  2  0
  6  7  1  0
  7  8  1  0
  8  9  1  0
  9 10  1  0
  9 11  1  0
 11 12  2  0
 11 13  1  0
 13 14  2  0
 14 15  1  0
 15 16  2  0
 16 17  1  0
 17 18  2  0
 18 19  1  0
 19 20  1  0
 20 21  1  0
  6 22  1  0
 22 23  2  0
 23  3  1  0
 18 13  1  0
 21 17  1  0
  1 24  1  0
  1 25  1  0
  1 26  1  0
  4 27  1  0
  5 28  1  0
  7 29  1  0
  7 30  1  0
  8 31  1  0
  8 32  1  0
 10 33  1  0
 10 34  1  0
 10 35  1  0
 14 36  1  0
 15 37  1  0
 16 38  1  0
 20 39  1  0
 20 40  1  0
 21 41  1  0
 21 42  1  0
 22 43  1  0
M  END
>  <Energy>  (668) 
867.28960790381484

>  <compound_id>  (668) 
52876

>  <target_id>  (668) 
1

>  <reference_id>  (668) 
82

>  <inspiration_ids>  (668) 
[82, 89]

>  <energy_score>  (668) 
791.419678208597

>  <distance_score>  (668) 
5.442462349225458

>  <path>  (668) 
/opt/xchem-fragalysis-2/maxwin/BulkDock/SCRATCH/511021/C52876-P82/C52876-P82.minimised.mol

>  <scratch_subdir>  (668) 
/opt/xchem-fragalysis-2/maxwin/BulkDock/SCRATCH/511021/C52876-P82

>  <fragmenstein_runtime>  (668) 
23.10249376296997

>  <fragmenstein_outcome>  (668) 
too moved

>  <fragmenstein_mode>  (668) 
expansion

>  <fragmenstein_error>  (668) 


$$$$
C52877-P82
     RDKit          3D

 39 41  0  0  0  0  0  0  0  0999 V2000
   -0.9257  -22.0109   34.0294 O   0  0  0  0  0  0  0  0  0  0  0  0
   -0.8721  -20.8903   33.6339 C   0  0  0  0  0  0  0  0  0  0  0  0
    1.1128  -20.3401   33.6633 C   0  0  0  0  0  0  0  0  0  0  0  0
    2.7769  -20.8528   32.3951 C   0  0  0  0  0  0  0  0  0  0  0  0
    4.1387  -21.7069   31.0379 C   0  0  0  0  0  0  0  0  0  0  0  0
    4.6826  -22.1068   29.1374 N   0  0  0  0  0  0  0  0  0  0  0  0
    4.9824  -23.3832   28.6002 C   0  0  0  0  0  0  0  0  0  0  0  0
    5.4777  -24.0183   27.4978 C   0  0  0  0  0  0  0  0  0  0  0  0
    4.9150  -23.6440   26.2704 C   0  0  0  0  0  0  0  0  0  0  0  0
    4.3821  -22.4398   26.3617 C   0  0  0  0  0  0  0  0  0  0  0  0
    4.6826  -21.4868   27.5075 C   0  0  0  0  0  0  0  0  0  0  0  0
    4.8092  -20.3470   27.0166 O   0  0  0  0  0  0  0  0  0  0  0  0
   -2.6079  -20.2022   32.8870 N   0  0  0  0  0  0  0  0  0  0  0  0
   -4.4278  -21.1955   32.4665 C   0  0  0  0  0  0  0  0  0  0  0  0
   -4.0934  -22.6863   31.5366 N   0  0  0  0  0  0  0  0  0  0  0  0
   -5.5134  -23.7714   31.2936 N   0  0  0  0  0  0  0  0  0  0  0  0
   -5.9945  -24.4852   32.2880 C   0  0  0  0  0  0  0  0  0  0  0  0
   -7.7973  -24.8942   32.4132 C   0  0  0  0  0  0  0  0  0  0  0  0
   -8.8633  -24.0532   32.8097 C   0  0  0  0  0  0  0  0  0  0  0  0
  -10.2411  -24.2478   32.5575 C   0  0  0  0  0  0  0  0  0  0  0  0
  -10.6232  -25.3324   31.8309 C   0  0  0  0  0  0  0  0  0  0  0  0
   -9.6021  -26.1669   31.4846 C   0  0  0  0  0  0  0  0  0  0  0  0
   -8.2719  -25.9711   31.8005 N   0  0  0  0  0  0  0  0  0  0  0  0
   -4.1719  -23.4242   31.8727 S   0  0  0  0  0  0  0  0  0  0  0  0
    1.5218  -19.6147   34.3881 H   0  0  0  0  0  0  0  0  0  0  0  0
    1.4028  -21.3094   34.0262 H   0  0  0  0  0  0  0  0  0  0  0  0
    3.2214  -19.9348   32.2008 H   0  0  0  0  0  0  0  0  0  0  0  0
    3.3653  -21.1968   33.2494 H   0  0  0  0  0  0  0  0  0  0  0  0
    4.8845  -20.9034   31.1898 H   0  0  0  0  0  0  0  0  0  0  0  0
    4.7731  -22.3502   31.6404 H   0  0  0  0  0  0  0  0  0  0  0  0
    3.9813  -23.5391   28.2361 H   0  0  0  0  0  0  0  0  0  0  0  0
    5.8279  -25.0448   27.5825 H   0  0  0  0  0  0  0  0  0  0  0  0
    4.8056  -24.3020   25.4277 H   0  0  0  0  0  0  0  0  0  0  0  0
    3.8340  -22.0004   25.5628 H   0  0  0  0  0  0  0  0  0  0  0  0
   -2.4935  -19.2370   32.6587 H   0  0  0  0  0  0  0  0  0  0  0  0
   -8.5809  -23.1328   33.2776 H   0  0  0  0  0  0  0  0  0  0  0  0
  -10.9794  -23.5243   32.8899 H   0  0  0  0  0  0  0  0  0  0  0  0
  -11.6532  -25.5189   31.5638 H   0  0  0  0  0  0  0  0  0  0  0  0
   -9.7922  -27.0881   30.9397 H   0  0  0  0  0  0  0  0  0  0  0  0
  1  2  2  0
  2  3  1  0
  3  4  1  0
  4  5  1  0
  5  6  1  0
  6  7  1  0
  7  8  2  0
  8  9  1  0
  9 10  2  0
 10 11  1  0
 11 12  2  0
  2 13  1  0
 13 14  1  0
 14 15  2  0
 15 16  1  0
 16 17  2  0
 17 18  1  0
 18 19  2  0
 19 20  1  0
 20 21  2  0
 21 22  1  0
 22 23  2  0
 17 24  1  0
 11  6  1  0
 24 14  1  0
 23 18  1  0
  3 25  1  0
  3 26  1  0
  4 27  1  0
  4 28  1  0
  5 29  1  0
  5 30  1  0
  7 31  1  0
  8 32  1  0
  9 33  1  0
 10 34  1  0
 13 35  1  0
 19 36  1  0
 20 37  1  0
 21 38  1  0
 22 39  1  0
M  END
>  <Energy>  (669) 
1721.1731443110336

>  <compound_id>  (669) 
52877

>  <target_id>  (669) 
1

>  <reference_id>  (669) 
82

>  <inspiration_ids>  (669) 
[82, 89]

>  <energy_score>  (669) 
1601.8705589517617

>  <distance_score>  (669) 
3.0627274733706877

>  <path>  (669) 
/opt/xchem-fragalysis-2/maxwin/BulkDock/SCRATCH/511021/C52877-P82/C52877-P82.minimised.mol

>  <scratch_subdir>  (669) 
/opt/xchem-fragalysis-2/maxwin/BulkDock/SCRATCH/511021/C52877-P82

>  <fragmenstein_runtime>  (669) 
18.30461287498474

>  <fragmenstein_outcome>  (669) 
too moved

>  <fragmenstein_mode>  (669) 
expansion

>  <fragmenstein_error>  (669) 


$$$$
C52880-P82
     RDKit          3D

 32 34  0  0  0  0  0  0  0  0999 V2000
   -1.1706  -26.7180   23.7845 O   0  0  0  0  0  0  0  0  0  0  0  0
   -1.6984  -26.4878   24.8599 C   0  0  0  0  0  0  0  0  0  0  0  0
   -1.4769  -25.2810   25.8837 N   0  0  0  0  0  0  0  0  0  0  0  0
   -0.1685  -23.7829   25.8617 N   0  0  0  0  0  0  0  0  0  0  0  0
    0.9566  -23.9713   25.2633 C   0  0  0  0  0  0  0  0  0  0  0  0
    2.4316  -23.9679   26.0061 C   0  0  0  0  0  0  0  0  0  0  0  0
    3.1076  -23.0445   26.7810 C   0  0  0  0  0  0  0  0  0  0  0  0
    2.1130  -22.5948   27.4935 C   0  0  0  0  0  0  0  0  0  0  0  0
    0.5106  -23.0981   27.3642 C   0  0  0  0  0  0  0  0  0  0  0  0
   -0.3574  -22.3658   27.9207 O   0  0  0  0  0  0  0  0  0  0  0  0
   -2.6058  -27.6371   25.2468 C   0  0  0  0  0  0  0  0  0  0  0  0
   -3.1228  -28.4823   24.2689 C   0  0  0  0  0  0  0  0  0  0  0  0
   -3.8316  -29.6136   24.6636 C   0  0  0  0  0  0  0  0  0  0  0  0
   -4.0104  -29.9941   25.9476 N   0  0  0  0  0  0  0  0  0  0  0  0
   -3.4062  -29.2668   26.9023 C   0  0  0  0  0  0  0  0  0  0  0  0
   -3.3669  -29.7642   28.3265 C   0  0  0  0  0  0  0  0  0  0  0  0
   -3.2612  -31.2415   28.6228 C   0  0  0  0  0  0  0  0  0  0  0  0
   -2.0815  -30.3506   28.8700 C   0  0  0  0  0  0  0  0  0  0  0  0
   -2.7308  -28.0936   26.5629 C   0  0  0  0  0  0  0  0  0  0  0  0
   -2.1406  -25.3538   26.6433 H   0  0  0  0  0  0  0  0  0  0  0  0
    0.8040  -24.5974   24.3617 H   0  0  0  0  0  0  0  0  0  0  0  0
    3.2088  -24.6834   25.7664 H   0  0  0  0  0  0  0  0  0  0  0  0
    4.1644  -22.8518   26.8593 H   0  0  0  0  0  0  0  0  0  0  0  0
    2.2222  -22.0053   28.3254 H   0  0  0  0  0  0  0  0  0  0  0  0
   -2.9942  -28.2634   23.2121 H   0  0  0  0  0  0  0  0  0  0  0  0
   -4.2804  -30.2714   23.9231 H   0  0  0  0  0  0  0  0  0  0  0  0
   -3.9428  -29.1765   29.0344 H   0  0  0  0  0  0  0  0  0  0  0  0
   -3.2151  -31.9333   27.7881 H   0  0  0  0  0  0  0  0  0  0  0  0
   -3.8027  -31.6256   29.4795 H   0  0  0  0  0  0  0  0  0  0  0  0
   -1.8192  -30.1383   29.9005 H   0  0  0  0  0  0  0  0  0  0  0  0
   -1.2291  -30.4642   28.2092 H   0  0  0  0  0  0  0  0  0  0  0  0
   -2.2870  -27.5672   27.3701 H   0  0  0  0  0  0  0  0  0  0  0  0
  1  2  2  0
  2  3  1  0
  3  4  1  0
  4  5  1  0
  5  6  2  0
  6  7  1  0
  7  8  2  0
  8  9  1  0
  9 10  2  0
  2 11  1  0
 11 12  2  0
 12 13  1  0
 13 14  2  0
 14 15  1  0
 15 16  1  0
 16 17  1  0
 17 18  1  0
 15 19  2  0
  9  4  1  0
 19 11  1  0
 18 16  1  0
  3 20  1  0
  5 21  1  0
  6 22  1  0
  7 23  1  0
  8 24  1  0
 12 25  1  0
 13 26  1  0
 16 27  1  0
 17 28  1  0
 17 29  1  0
 18 30  1  0
 18 31  1  0
 19 32  1  0
M  END
>  <Energy>  (670) 
342.04734901361269

>  <compound_id>  (670) 
52880

>  <target_id>  (670) 
1

>  <reference_id>  (670) 
82

>  <inspiration_ids>  (670) 
[82, 89]

>  <energy_score>  (670) 
265.44623002421986

>  <distance_score>  (670) 
8.5450866874432

>  <path>  (670) 
/opt/xchem-fragalysis-2/maxwin/BulkDock/SCRATCH/511021/C52880-P82/C52880-P82.minimised.mol

>  <scratch_subdir>  (670) 
/opt/xchem-fragalysis-2/maxwin/BulkDock/SCRATCH/511021/C52880-P82

>  <fragmenstein_runtime>  (670) 
20.406870126724243

>  <fragmenstein_outcome>  (670) 
too moved

>  <fragmenstein_mode>  (670) 
expansion

>  <fragmenstein_error>  (670) 


$$$$
C52882-P82
     RDKit          3D

 41 44  0  0  0  0  0  0  0  0999 V2000
    2.0428  -21.8481   28.0849 C   0  0  0  0  0  0  0  0  0  0  0  0
    1.7513  -20.9183   29.8691 C   0  0  0  0  0  0  0  0  0  0  0  0
    2.3281  -20.8355   31.0182 C   0  0  0  0  0  0  0  0  0  0  0  0
    2.6228  -21.6923   30.0458 C   0  0  0  0  0  0  0  0  0  0  0  0
    1.6834  -22.2637   28.3875 C   0  0  0  0  0  0  0  0  0  0  0  0
   -0.4391  -21.7410   28.7175 C   0  0  0  0  0  0  0  0  0  0  0  0
   -2.0028  -21.8670   29.9817 N   0  0  0  0  0  0  0  0  0  0  0  0
   -3.7751  -22.8622   30.4661 C   0  0  0  0  0  0  0  0  0  0  0  0
   -4.9470  -23.7624   31.7774 C   0  0  0  0  0  0  0  0  0  0  0  0
   -6.2511  -24.1133   32.0431 C   0  0  0  0  0  0  0  0  0  0  0  0
   -7.9363  -24.7153   32.4388 C   0  0  0  0  0  0  0  0  0  0  0  0
   -8.2432  -25.9195   32.5241 C   0  0  0  0  0  0  0  0  0  0  0  0
   -9.3147  -25.9565   31.3940 C   0  0  0  0  0  0  0  0  0  0  0  0
  -10.7558  -25.7794   31.8443 C   0  0  0  0  0  0  0  0  0  0  0  0
  -10.3385  -26.9898   31.0674 C   0  0  0  0  0  0  0  0  0  0  0  0
   -6.9572  -25.8833   32.8936 N   0  0  0  0  0  0  0  0  0  0  0  0
   -5.4005  -24.9138   32.4855 C   0  0  0  0  0  0  0  0  0  0  0  0
    2.4572  -22.7127   27.3268 C   0  0  0  0  0  0  0  0  0  0  0  0
    4.1997  -22.0434   30.2287 O   0  0  0  0  0  0  0  0  0  0  0  0
    4.6016  -21.3011   31.4791 C   0  0  0  0  0  0  0  0  0  0  0  0
    3.3062  -20.9780   32.0938 C   0  0  0  0  0  0  0  0  0  0  0  0
    0.7159  -21.7707   27.3103 H   0  0  0  0  0  0  0  0  0  0  0  0
    0.9013  -20.1725   30.0060 H   0  0  0  0  0  0  0  0  0  0  0  0
   -0.3892  -20.7671   29.1941 H   0  0  0  0  0  0  0  0  0  0  0  0
   -0.8893  -21.2202   27.9054 H   0  0  0  0  0  0  0  0  0  0  0  0
   -2.4635  -21.0507   29.6269 H   0  0  0  0  0  0  0  0  0  0  0  0
   -3.9082  -23.5872   29.6613 H   0  0  0  0  0  0  0  0  0  0  0  0
   -3.4053  -23.2478   31.3995 H   0  0  0  0  0  0  0  0  0  0  0  0
   -6.8945  -23.5349   32.7250 H   0  0  0  0  0  0  0  0  0  0  0  0
   -8.7430  -23.9662   32.5456 H   0  0  0  0  0  0  0  0  0  0  0  0
   -9.0818  -25.3510   30.5115 H   0  0  0  0  0  0  0  0  0  0  0  0
  -10.9779  -25.8999   32.8974 H   0  0  0  0  0  0  0  0  0  0  0  0
  -11.3690  -25.0411   31.3412 H   0  0  0  0  0  0  0  0  0  0  0  0
  -10.6716  -27.0498   30.0370 H   0  0  0  0  0  0  0  0  0  0  0  0
  -10.3238  -27.9511   31.5538 H   0  0  0  0  0  0  0  0  0  0  0  0
   -4.6019  -25.4960   33.1186 H   0  0  0  0  0  0  0  0  0  0  0  0
    3.5232  -22.9516   27.3210 H   0  0  0  0  0  0  0  0  0  0  0  0
    5.3666  -20.7241   30.9284 H   0  0  0  0  0  0  0  0  0  0  0  0
    4.6311  -20.1930   31.5204 H   0  0  0  0  0  0  0  0  0  0  0  0
    3.2234  -21.4610   33.0573 H   0  0  0  0  0  0  0  0  0  0  0  0
    3.2673  -20.0474   32.5655 H   0  0  0  0  0  0  0  0  0  0  0  0
  1  2  2  0
  2  3  1  0
  3  4  2  0
  4  5  1  0
  5  6  1  0
  6  7  1  0
  7  8  1  0
  8  9  1  0
  9 10  2  0
 10 11  1  0
 11 12  2  0
 12 13  1  0
 13 14  1  0
 14 15  1  0
 12 16  1  0
 16 17  2  0
  5 18  2  0
  4 19  1  0
 19 20  1  0
 20 21  1  0
 18  1  1  0
 21  3  1  0
 17  9  1  0
 15 13  1  0
  1 22  1  0
  2 23  1  0
  6 24  1  0
  6 25  1  0
  7 26  1  0
  8 27  1  0
  8 28  1  0
 10 29  1  0
 11 30  1  0
 13 31  1  0
 14 32  1  0
 14 33  1  0
 15 34  1  0
 15 35  1  0
 17 36  1  0
 18 37  1  0
 20 38  1  0
 20 39  1  0
 21 40  1  0
 21 41  1  0
M  END
>  <Energy>  (671) 
2023.6588090790515

>  <compound_id>  (671) 
52882

>  <target_id>  (671) 
1

>  <reference_id>  (671) 
82

>  <inspiration_ids>  (671) 
[82, 89]

>  <energy_score>  (671) 
1947.929131002675

>  <distance_score>  (671) 
4.040568527330563

>  <path>  (671) 
/opt/xchem-fragalysis-2/maxwin/BulkDock/SCRATCH/511021/C52882-P82/C52882-P82.minimised.mol

>  <scratch_subdir>  (671) 
/opt/xchem-fragalysis-2/maxwin/BulkDock/SCRATCH/511021/C52882-P82

>  <fragmenstein_runtime>  (671) 
19.211520195007324

>  <fragmenstein_outcome>  (671) 
too moved

>  <fragmenstein_mode>  (671) 
expansion

>  <fragmenstein_error>  (671) 


$$$$
C52883-P82
     RDKit          3D

 36 39  0  0  0  0  0  0  0  0999 V2000
   -1.1462  -22.0185   28.9901 O   0  0  0  0  0  0  0  0  0  0  0  0
   -1.0262  -22.9566   28.1608 C   0  0  0  0  0  0  0  0  0  0  0  0
   -2.5565  -23.8758   27.6332 O   0  0  0  0  0  0  0  0  0  0  0  0
   -4.3626  -23.8650   28.5545 C   0  0  0  0  0  0  0  0  0  0  0  0
   -6.1484  -24.3772   29.3071 C   0  0  0  0  0  0  0  0  0  0  0  0
   -7.4907  -24.3172   28.9172 C   0  0  0  0  0  0  0  0  0  0  0  0
   -8.8883  -24.9624   29.5063 C   0  0  0  0  0  0  0  0  0  0  0  0
   -9.0810  -25.4163   30.8366 C   0  0  0  0  0  0  0  0  0  0  0  0
   -7.8694  -25.4022   31.5060 C   0  0  0  0  0  0  0  0  0  0  0  0
   -6.3576  -24.8512   30.7472 N   0  0  0  0  0  0  0  0  0  0  0  0
   -4.1462  -23.0959   29.7293 C   0  0  0  0  0  0  0  0  0  0  0  0
   -5.0261  -22.7188   27.9994 C   0  0  0  0  0  0  0  0  0  0  0  0
    0.8758  -23.0583   27.5143 C   0  0  0  0  0  0  0  0  0  0  0  0
    1.4007  -23.8877   26.6437 C   0  0  0  0  0  0  0  0  0  0  0  0
    2.9617  -24.5948   26.4047 C   0  0  0  0  0  0  0  0  0  0  0  0
    4.0498  -24.5924   27.1339 C   0  0  0  0  0  0  0  0  0  0  0  0
    3.8720  -23.3516   27.5921 C   0  0  0  0  0  0  0  0  0  0  0  0
    2.4924  -22.4861   27.5727 C   0  0  0  0  0  0  0  0  0  0  0  0
    3.3371  -22.2187   26.0759 O   0  0  0  0  0  0  0  0  0  0  0  0
    4.6694  -21.7823   26.4560 C   0  0  0  0  0  0  0  0  0  0  0  0
    5.0252  -22.5773   27.6489 C   0  0  0  0  0  0  0  0  0  0  0  0
   -7.6097  -23.4368   28.2437 H   0  0  0  0  0  0  0  0  0  0  0  0
   -9.7729  -24.8240   28.8756 H   0  0  0  0  0  0  0  0  0  0  0  0
  -10.0163  -25.7442   31.2566 H   0  0  0  0  0  0  0  0  0  0  0  0
   -7.7209  -25.6714   32.5460 H   0  0  0  0  0  0  0  0  0  0  0  0
   -4.3943  -23.2968   30.7806 H   0  0  0  0  0  0  0  0  0  0  0  0
   -3.5185  -23.8647   30.0826 H   0  0  0  0  0  0  0  0  0  0  0  0
   -5.0312  -23.0410   26.9746 H   0  0  0  0  0  0  0  0  0  0  0  0
   -6.0364  -22.3245   27.9386 H   0  0  0  0  0  0  0  0  0  0  0  0
    0.7096  -23.9231   25.7389 H   0  0  0  0  0  0  0  0  0  0  0  0
    3.1625  -25.0561   25.4548 H   0  0  0  0  0  0  0  0  0  0  0  0
    4.9692  -25.1084   26.9299 H   0  0  0  0  0  0  0  0  0  0  0  0
    4.7483  -20.6957   26.5594 H   0  0  0  0  0  0  0  0  0  0  0  0
    5.3951  -22.0608   25.6977 H   0  0  0  0  0  0  0  0  0  0  0  0
    5.0816  -22.1188   28.6328 H   0  0  0  0  0  0  0  0  0  0  0  0
    5.8559  -23.2444   27.4013 H   0  0  0  0  0  0  0  0  0  0  0  0
  1  2  2  0
  2  3  1  0
  3  4  1  0
  4  5  1  0
  5  6  2  0
  6  7  1  0
  7  8  2  0
  8  9  1  0
  9 10  2  0
  4 11  1  0
 11 12  1  0
  2 13  1  0
 13 14  2  0
 14 15  1  0
 15 16  2  0
 16 17  1  0
 17 18  2  0
 18 19  1  0
 19 20  1  0
 20 21  1  0
 12  4  1  0
 18 13  1  0
 10  5  1  0
 21 17  1  0
  6 22  1  0
  7 23  1  0
  8 24  1  0
  9 25  1  0
 11 26  1  0
 11 27  1  0
 12 28  1  0
 12 29  1  0
 14 30  1  0
 15 31  1  0
 16 32  1  0
 20 33  1  0
 20 34  1  0
 21 35  1  0
 21 36  1  0
M  END
>  <Energy>  (672) 
988.39809043952675

>  <compound_id>  (672) 
52883

>  <target_id>  (672) 
1

>  <reference_id>  (672) 
82

>  <inspiration_ids>  (672) 
[82, 89]

>  <energy_score>  (672) 
880.6853820140964

>  <distance_score>  (672) 
4.637019936303657

>  <path>  (672) 
/opt/xchem-fragalysis-2/maxwin/BulkDock/SCRATCH/511021/C52883-P82/C52883-P82.minimised.mol

>  <scratch_subdir>  (672) 
/opt/xchem-fragalysis-2/maxwin/BulkDock/SCRATCH/511021/C52883-P82

>  <fragmenstein_runtime>  (672) 
15.704220294952393

>  <fragmenstein_outcome>  (672) 
too moved

>  <fragmenstein_mode>  (672) 
expansion

>  <fragmenstein_error>  (672) 


$$$$
C52884-P82
     RDKit          3D

 37 40  0  0  0  0  0  0  0  0999 V2000
   -8.1911  -24.8332   29.1740 N   0  0  0  0  0  0  0  0  0  0  0  0
   -7.2257  -24.2437   28.8508 C   0  0  0  0  0  0  0  0  0  0  0  0
   -6.0960  -23.4224   28.1287 C   0  0  0  0  0  0  0  0  0  0  0  0
   -4.3420  -23.6573   28.8550 C   0  0  0  0  0  0  0  0  0  0  0  0
   -3.5759  -22.5178   30.0705 C   0  0  0  0  0  0  0  0  0  0  0  0
   -1.7574  -21.7511   29.5873 C   0  0  0  0  0  0  0  0  0  0  0  0
   -0.5013  -22.1531   28.2844 C   0  0  0  0  0  0  0  0  0  0  0  0
    1.6267  -22.2457   28.1877 C   0  0  0  0  0  0  0  0  0  0  0  0
    2.6286  -22.8566   27.0892 C   0  0  0  0  0  0  0  0  0  0  0  0
    4.0347  -23.0977   27.1050 C   0  0  0  0  0  0  0  0  0  0  0  0
    4.7706  -23.0981   28.3167 C   0  0  0  0  0  0  0  0  0  0  0  0
    4.3610  -22.4347   29.7436 C   0  0  0  0  0  0  0  0  0  0  0  0
    2.8007  -21.8852   29.7430 C   0  0  0  0  0  0  0  0  0  0  0  0
    4.7394  -21.4909   29.6656 O   0  0  0  0  0  0  0  0  0  0  0  0
    5.2806  -20.1695   30.8076 C   0  0  0  0  0  0  0  0  0  0  0  0
    4.1736  -20.7036   31.8737 C   0  0  0  0  0  0  0  0  0  0  0  0
    4.5771  -22.0463   31.5651 C   0  0  0  0  0  0  0  0  0  0  0  0
   -1.7339  -23.4125   27.7926 C   0  0  0  0  0  0  0  0  0  0  0  0
   -3.4533  -24.0501   27.7573 N   0  0  0  0  0  0  0  0  0  0  0  0
   -6.8780  -22.2486   27.6068 C   0  0  0  0  0  0  0  0  0  0  0  0
   -5.8765  -22.8340   26.7987 C   0  0  0  0  0  0  0  0  0  0  0  0
   -4.4330  -22.0778   29.6645 H   0  0  0  0  0  0  0  0  0  0  0  0
   -1.8834  -20.7417   29.3024 H   0  0  0  0  0  0  0  0  0  0  0  0
    2.2302  -23.5776   26.3612 H   0  0  0  0  0  0  0  0  0  0  0  0
    4.4655  -23.6235   26.2485 H   0  0  0  0  0  0  0  0  0  0  0  0
    5.5109  -23.8628   28.1749 H   0  0  0  0  0  0  0  0  0  0  0  0
    6.3759  -20.1942   30.7769 H   0  0  0  0  0  0  0  0  0  0  0  0
    5.0900  -19.1572   30.4158 H   0  0  0  0  0  0  0  0  0  0  0  0
    4.1720  -20.6716   32.9419 H   0  0  0  0  0  0  0  0  0  0  0  0
    3.1093  -20.5345   31.7012 H   0  0  0  0  0  0  0  0  0  0  0  0
    5.5320  -22.0872   31.8385 H   0  0  0  0  0  0  0  0  0  0  0  0
    4.2681  -22.4406   32.5273 H   0  0  0  0  0  0  0  0  0  0  0  0
   -1.7126  -23.8438   26.7686 H   0  0  0  0  0  0  0  0  0  0  0  0
   -7.9089  -22.3166   27.9483 H   0  0  0  0  0  0  0  0  0  0  0  0
   -7.6540  -22.4615   26.8548 H   0  0  0  0  0  0  0  0  0  0  0  0
   -6.1427  -23.3215   25.8740 H   0  0  0  0  0  0  0  0  0  0  0  0
   -5.1449  -22.0743   26.6951 H   0  0  0  0  0  0  0  0  0  0  0  0
  1  2  3  0
  2  3  1  0
  3  4  1  0
  4  5  2  0
  5  6  1  0
  6  7  2  0
  7  8  1  0
  8  9  2  0
  9 10  1  0
 10 11  2  0
 11 12  1  0
 12 13  2  0
 13 14  1  0
 14 15  1  0
 15 16  1  0
 16 17  1  0
  7 18  1  0
 18 19  2  0
  3 20  1  0
 20 21  1  0
 21  3  1  0
 19  4  1  0
 13  8  1  0
 17 12  1  0
  5 22  1  0
  6 23  1  0
  9 24  1  0
 10 25  1  0
 11 26  1  0
 15 27  1  0
 15 28  1  0
 16 29  1  0
 16 30  1  0
 17 31  1  0
 17 32  1  0
 18 33  1  0
 20 34  1  0
 20 35  1  0
 21 36  1  0
 21 37  1  0
M  END
>  <Energy>  (673) 
1469.2933417261215

>  <compound_id>  (673) 
52884

>  <target_id>  (673) 
1

>  <reference_id>  (673) 
82

>  <inspiration_ids>  (673) 
[82, 89]

>  <energy_score>  (673) 
1369.311681706151

>  <distance_score>  (673) 
3.8206722212908852

>  <path>  (673) 
/opt/xchem-fragalysis-2/maxwin/BulkDock/SCRATCH/511021/C52884-P82/C52884-P82.minimised.mol

>  <scratch_subdir>  (673) 
/opt/xchem-fragalysis-2/maxwin/BulkDock/SCRATCH/511021/C52884-P82

>  <fragmenstein_runtime>  (673) 
13.38157844543457

>  <fragmenstein_outcome>  (673) 
too moved

>  <fragmenstein_mode>  (673) 
expansion

>  <fragmenstein_error>  (673) 


$$$$
C52889-P82
     RDKit          3D

 41 43  0  0  0  0  0  0  0  0999 V2000
   -5.9926  -24.2786   29.9472 O   0  0  0  0  0  0  0  0  0  0  0  0
   -5.6652  -24.0299   31.1431 C   0  0  0  0  0  0  0  0  0  0  0  0
   -4.0371  -22.9001   31.4231 N   0  0  0  0  0  0  0  0  0  0  0  0
   -2.7389  -21.8140   30.0908 C   0  0  0  0  0  0  0  0  0  0  0  0
   -0.7955  -21.3420   29.3683 C   0  0  0  0  0  0  0  0  0  0  0  0
    1.2687  -21.2435   29.7234 C   0  0  0  0  0  0  0  0  0  0  0  0
    2.4311  -22.1613   28.2677 N   0  0  0  0  0  0  0  0  0  0  0  0
    2.5197  -22.9434   26.9695 C   0  0  0  0  0  0  0  0  0  0  0  0
    3.1138  -24.1204   26.6052 C   0  0  0  0  0  0  0  0  0  0  0  0
    4.4926  -24.2614   26.7114 C   0  0  0  0  0  0  0  0  0  0  0  0
    4.9747  -23.3248   27.4799 C   0  0  0  0  0  0  0  0  0  0  0  0
    4.1662  -22.5542   28.5058 C   0  0  0  0  0  0  0  0  0  0  0  0
    4.7774  -22.2050   29.5171 O   0  0  0  0  0  0  0  0  0  0  0  0
   -7.1112  -24.7729   32.3567 C   0  0  0  0  0  0  0  0  0  0  0  0
   -8.4321  -23.8652   32.8445 C   0  0  0  0  0  0  0  0  0  0  0  0
   -9.8884  -24.0025   32.9093 C   0  0  0  0  0  0  0  0  0  0  0  0
  -10.2895  -25.2563   32.8973 C   0  0  0  0  0  0  0  0  0  0  0  0
   -9.3197  -26.0624   32.5780 N   0  0  0  0  0  0  0  0  0  0  0  0
   -8.2465  -25.6276   31.7954 C   0  0  0  0  0  0  0  0  0  0  0  0
   -9.2167  -25.2347   30.3537 C   0  0  0  0  0  0  0  0  0  0  0  0
   -9.4170  -25.8121   28.9725 C   0  0  0  0  0  0  0  0  0  0  0  0
  -10.2709  -26.3369   30.0537 C   0  0  0  0  0  0  0  0  0  0  0  0
   -3.9514  -22.7192   32.3834 H   0  0  0  0  0  0  0  0  0  0  0  0
   -2.6782  -20.7647   30.2253 H   0  0  0  0  0  0  0  0  0  0  0  0
   -1.6634  -22.3572   29.4050 H   0  0  0  0  0  0  0  0  0  0  0  0
   -0.8810  -20.3007   29.1209 H   0  0  0  0  0  0  0  0  0  0  0  0
   -0.7574  -21.6388   28.3004 H   0  0  0  0  0  0  0  0  0  0  0  0
    1.9545  -21.0229   30.5826 H   0  0  0  0  0  0  0  0  0  0  0  0
    1.0701  -20.1622   29.8873 H   0  0  0  0  0  0  0  0  0  0  0  0
    3.1391  -22.3128   26.2961 H   0  0  0  0  0  0  0  0  0  0  0  0
    2.9943  -24.5324   25.6297 H   0  0  0  0  0  0  0  0  0  0  0  0
    5.0921  -24.8597   26.0389 H   0  0  0  0  0  0  0  0  0  0  0  0
    6.0275  -23.2862   27.3872 H   0  0  0  0  0  0  0  0  0  0  0  0
   -8.1726  -22.9280   33.3643 H   0  0  0  0  0  0  0  0  0  0  0  0
  -10.5929  -23.2148   33.1194 H   0  0  0  0  0  0  0  0  0  0  0  0
  -11.2684  -25.6282   33.1313 H   0  0  0  0  0  0  0  0  0  0  0  0
   -9.7582  -24.3149   30.5168 H   0  0  0  0  0  0  0  0  0  0  0  0
   -9.9082  -25.1774   28.2396 H   0  0  0  0  0  0  0  0  0  0  0  0
   -8.7238  -26.4870   28.5046 H   0  0  0  0  0  0  0  0  0  0  0  0
  -10.0712  -27.3180   30.4652 H   0  0  0  0  0  0  0  0  0  0  0  0
  -11.3153  -26.0496   30.0786 H   0  0  0  0  0  0  0  0  0  0  0  0
  1  2  2  0
  2  3  1  0
  3  4  1  0
  4  5  1  0
  5  6  1  0
  6  7  1  0
  7  8  1  0
  8  9  2  0
  9 10  1  0
 10 11  2  0
 11 12  1  0
 12 13  2  0
  2 14  1  0
 14 15  2  0
 15 16  1  0
 16 17  2  0
 17 18  1  0
 18 19  2  0
 19 20  1  0
 20 21  1  0
 21 22  1  0
 12  7  1  0
 19 14  1  0
 22 20  1  0
  3 23  1  0
  4 24  1  0
  4 25  1  0
  5 26  1  0
  5 27  1  0
  6 28  1  0
  6 29  1  0
  8 30  1  0
  9 31  1  0
 10 32  1  0
 11 33  1  0
 15 34  1  0
 16 35  1  0
 17 36  1  0
 20 37  1  0
 21 38  1  0
 21 39  1  0
 22 40  1  0
 22 41  1  0
M  END
>  <Energy>  (674) 
1313.6477138956825

>  <compound_id>  (674) 
52889

>  <target_id>  (674) 
1

>  <reference_id>  (674) 
82

>  <inspiration_ids>  (674) 
[82, 89]

>  <energy_score>  (674) 
1251.103550265876

>  <distance_score>  (674) 
4.417036317205194

>  <path>  (674) 
/opt/xchem-fragalysis-2/maxwin/BulkDock/SCRATCH/511021/C52889-P82/C52889-P82.minimised.mol

>  <scratch_subdir>  (674) 
/opt/xchem-fragalysis-2/maxwin/BulkDock/SCRATCH/511021/C52889-P82

>  <fragmenstein_runtime>  (674) 
36.04901075363159

>  <fragmenstein_outcome>  (674) 
too moved

>  <fragmenstein_mode>  (674) 
expansion

>  <fragmenstein_error>  (674) 


$$$$
C52890-P82
     RDKit          3D

 44 46  0  0  0  0  0  0  0  0999 V2000
    0.8533  -25.2440   32.3681 O   0  0  0  0  0  0  0  0  0  0  0  0
    0.0927  -24.4714   32.9504 C   0  0  0  0  0  0  0  0  0  0  0  0
    0.7506  -22.6528   33.6700 C   0  0  0  0  0  0  0  0  0  0  0  0
    2.2620  -21.2550   32.9053 C   0  0  0  0  0  0  0  0  0  0  0  0
    3.7966  -21.5130   31.4511 C   0  0  0  0  0  0  0  0  0  0  0  0
    4.3388  -22.0769   29.5557 N   0  0  0  0  0  0  0  0  0  0  0  0
    5.1110  -23.1090   29.1630 C   0  0  0  0  0  0  0  0  0  0  0  0
    5.2341  -23.9684   28.0362 C   0  0  0  0  0  0  0  0  0  0  0  0
    4.4551  -23.9238   26.8913 C   0  0  0  0  0  0  0  0  0  0  0  0
    4.0018  -22.7088   26.7896 C   0  0  0  0  0  0  0  0  0  0  0  0
    4.5552  -21.7064   27.7810 C   0  0  0  0  0  0  0  0  0  0  0  0
    4.7774  -20.6559   27.1323 O   0  0  0  0  0  0  0  0  0  0  0  0
   -1.8001  -24.6945   33.4636 N   0  0  0  0  0  0  0  0  0  0  0  0
   -3.0308  -26.1960   33.3578 C   0  0  0  0  0  0  0  0  0  0  0  0
   -4.9699  -26.6733   33.9704 C   0  0  0  0  0  0  0  0  0  0  0  0
   -6.9484  -26.3468   33.4388 C   0  0  0  0  0  0  0  0  0  0  0  0
   -8.0577  -25.8794   34.2605 C   0  0  0  0  0  0  0  0  0  0  0  0
   -9.5051  -25.5575   33.8922 C   0  0  0  0  0  0  0  0  0  0  0  0
   -9.9251  -25.4207   32.6265 C   0  0  0  0  0  0  0  0  0  0  0  0
   -8.8526  -25.5185   31.8466 C   0  0  0  0  0  0  0  0  0  0  0  0
   -7.5267  -25.8003   32.2826 N   0  0  0  0  0  0  0  0  0  0  0  0
   -5.0832  -26.1965   35.4594 C   0  0  0  0  0  0  0  0  0  0  0  0
   -5.0325  -27.6040   35.3693 C   0  0  0  0  0  0  0  0  0  0  0  0
    1.2290  -22.9464   34.5587 H   0  0  0  0  0  0  0  0  0  0  0  0
   -0.1455  -22.1545   34.0710 H   0  0  0  0  0  0  0  0  0  0  0  0
    3.0412  -21.5174   33.6506 H   0  0  0  0  0  0  0  0  0  0  0  0
    2.2156  -20.3810   33.5562 H   0  0  0  0  0  0  0  0  0  0  0  0
    4.2890  -20.5580   31.6565 H   0  0  0  0  0  0  0  0  0  0  0  0
    4.5593  -22.0661   32.0150 H   0  0  0  0  0  0  0  0  0  0  0  0
    5.5580  -23.3632   30.0585 H   0  0  0  0  0  0  0  0  0  0  0  0
    5.8649  -24.8641   28.0585 H   0  0  0  0  0  0  0  0  0  0  0  0
    4.3232  -24.7184   26.1774 H   0  0  0  0  0  0  0  0  0  0  0  0
    3.5779  -22.3745   25.8669 H   0  0  0  0  0  0  0  0  0  0  0  0
   -2.1225  -23.9365   33.9914 H   0  0  0  0  0  0  0  0  0  0  0  0
   -2.6018  -26.5617   34.2925 H   0  0  0  0  0  0  0  0  0  0  0  0
   -3.6203  -25.2932   33.5185 H   0  0  0  0  0  0  0  0  0  0  0  0
   -7.8676  -25.7063   35.3306 H   0  0  0  0  0  0  0  0  0  0  0  0
  -10.2750  -25.4773   34.6585 H   0  0  0  0  0  0  0  0  0  0  0  0
  -10.9302  -25.2152   32.3064 H   0  0  0  0  0  0  0  0  0  0  0  0
   -8.9672  -25.3339   30.7844 H   0  0  0  0  0  0  0  0  0  0  0  0
   -5.9999  -26.0169   36.0037 H   0  0  0  0  0  0  0  0  0  0  0  0
   -4.4054  -25.3482   35.5047 H   0  0  0  0  0  0  0  0  0  0  0  0
   -5.9317  -28.0358   35.7370 H   0  0  0  0  0  0  0  0  0  0  0  0
   -4.2092  -28.0402   35.9223 H   0  0  0  0  0  0  0  0  0  0  0  0
  1  2  2  0
  2  3  1  0
  3  4  1  0
  4  5  1  0
  5  6  1  0
  6  7  1  0
  7  8  2  0
  8  9  1  0
  9 10  2  0
 10 11  1  0
 11 12  2  0
  2 13  1  0
 13 14  1  0
 14 15  1  0
 15 16  1  0
 16 17  2  0
 17 18  1  0
 18 19  2  0
 19 20  1  0
 20 21  2  0
 15 22  1  0
 22 23  1  0
 11  6  1  0
 23 15  1  0
 21 16  1  0
  3 24  1  0
  3 25  1  0
  4 26  1  0
  4 27  1  0
  5 28  1  0
  5 29  1  0
  7 30  1  0
  8 31  1  0
  9 32  1  0
 10 33  1  0
 13 34  1  0
 14 35  1  0
 14 36  1  0
 17 37  1  0
 18 38  1  0
 19 39  1  0
 20 40  1  0
 22 41  1  0
 22 42  1  0
 23 43  1  0
 23 44  1  0
M  END
>  <Energy>  (675) 
1118.9984502249515

>  <compound_id>  (675) 
52890

>  <target_id>  (675) 
1

>  <reference_id>  (675) 
82

>  <inspiration_ids>  (675) 
[82, 89]

>  <energy_score>  (675) 
1083.9468227128168

>  <distance_score>  (675) 
3.644163720975114

>  <path>  (675) 
/opt/xchem-fragalysis-2/maxwin/BulkDock/SCRATCH/511021/C52890-P82/C52890-P82.minimised.mol

>  <scratch_subdir>  (675) 
/opt/xchem-fragalysis-2/maxwin/BulkDock/SCRATCH/511021/C52890-P82

>  <fragmenstein_runtime>  (675) 
27.80323839187622

>  <fragmenstein_outcome>  (675) 
too moved

>  <fragmenstein_mode>  (675) 
expansion

>  <fragmenstein_error>  (675) 


$$$$
C52891-P82
     RDKit          3D

 38 40  0  0  0  0  0  0  0  0999 V2000
   -6.0172  -22.7036   26.9041 O   0  0  0  0  0  0  0  0  0  0  0  0
   -5.7875  -23.3762   27.8762 C   0  0  0  0  0  0  0  0  0  0  0  0
   -3.8655  -23.8651   28.4515 C   0  0  0  0  0  0  0  0  0  0  0  0
   -1.6681  -23.5857   28.3723 C   0  0  0  0  0  0  0  0  0  0  0  0
    0.1899  -24.3619   28.7379 N   0  0  0  0  0  0  0  0  0  0  0  0
    1.0972  -23.5708   27.3825 C   0  0  0  0  0  0  0  0  0  0  0  0
    2.4454  -23.8390   26.7155 C   0  0  0  0  0  0  0  0  0  0  0  0
    3.3849  -25.0823   27.2436 C   0  0  0  0  0  0  0  0  0  0  0  0
    2.7870  -25.8588   28.2497 C   0  0  0  0  0  0  0  0  0  0  0  0
    1.2067  -25.6630   29.2875 C   0  0  0  0  0  0  0  0  0  0  0  0
    0.9708  -26.5449   30.1068 O   0  0  0  0  0  0  0  0  0  0  0  0
   -6.9289  -24.2723   28.9782 N   0  0  0  0  0  0  0  0  0  0  0  0
   -8.7171  -24.5636   28.8862 C   0  0  0  0  0  0  0  0  0  0  0  0
   -9.6791  -24.1873   27.8873 C   0  0  0  0  0  0  0  0  0  0  0  0
  -11.0194  -24.5744   27.7954 C   0  0  0  0  0  0  0  0  0  0  0  0
  -11.4717  -25.4651   28.7089 C   0  0  0  0  0  0  0  0  0  0  0  0
  -10.7090  -25.8695   29.7178 N   0  0  0  0  0  0  0  0  0  0  0  0
   -9.4632  -25.3062   29.9228 C   0  0  0  0  0  0  0  0  0  0  0  0
   -9.2193  -25.2961   31.4511 C   0  0  0  0  0  0  0  0  0  0  0  0
  -10.3318  -25.6318   32.4482 C   0  0  0  0  0  0  0  0  0  0  0  0
   -9.9678  -24.2225   32.2301 C   0  0  0  0  0  0  0  0  0  0  0  0
   -4.0108  -23.7767   29.5205 H   0  0  0  0  0  0  0  0  0  0  0  0
   -3.8696  -24.8288   27.9173 H   0  0  0  0  0  0  0  0  0  0  0  0
   -1.2819  -22.5515   28.5609 H   0  0  0  0  0  0  0  0  0  0  0  0
   -1.8484  -23.6780   27.3128 H   0  0  0  0  0  0  0  0  0  0  0  0
    0.6418  -22.6072   27.4567 H   0  0  0  0  0  0  0  0  0  0  0  0
    3.0557  -23.1049   26.1910 H   0  0  0  0  0  0  0  0  0  0  0  0
    4.4356  -25.0953   26.9827 H   0  0  0  0  0  0  0  0  0  0  0  0
    1.9713  -25.5862   27.6427 H   0  0  0  0  0  0  0  0  0  0  0  0
   -6.4455  -24.6558   29.7411 H   0  0  0  0  0  0  0  0  0  0  0  0
   -9.3801  -23.5796   27.0740 H   0  0  0  0  0  0  0  0  0  0  0  0
  -11.6524  -24.2164   26.9914 H   0  0  0  0  0  0  0  0  0  0  0  0
  -12.4793  -25.8539   28.6790 H   0  0  0  0  0  0  0  0  0  0  0  0
   -8.2561  -25.6211   31.8172 H   0  0  0  0  0  0  0  0  0  0  0  0
  -11.2992  -25.9412   32.0819 H   0  0  0  0  0  0  0  0  0  0  0  0
  -10.0960  -26.0275   33.4230 H   0  0  0  0  0  0  0  0  0  0  0  0
   -9.3756  -23.6977   32.9533 H   0  0  0  0  0  0  0  0  0  0  0  0
  -10.7522  -23.6376   31.7616 H   0  0  0  0  0  0  0  0  0  0  0  0
  1  2  2  0
  2  3  1  0
  3  4  1  0
  4  5  1  0
  5  6  1  0
  6  7  2  0
  7  8  1  0
  8  9  2  0
  9 10  1  0
 10 11  2  0
  2 12  1  0
 12 13  1  0
 13 14  2  0
 14 15  1  0
 15 16  2  0
 16 17  1  0
 17 18  2  0
 18 19  1  0
 19 20  1  0
 20 21  1  0
 10  5  1  0
 18 13  1  0
 21 19  1  0
  3 22  1  0
  3 23  1  0
  4 24  1  0
  4 25  1  0
  6 26  1  0
  7 27  1  0
  8 28  1  0
  9 29  1  0
 12 30  1  0
 14 31  1  0
 15 32  1  0
 16 33  1  0
 19 34  1  0
 20 35  1  0
 20 36  1  0
 21 37  1  0
 21 38  1  0
M  END
>  <Energy>  (676) 
783.98239600986983

>  <compound_id>  (676) 
52891

>  <target_id>  (676) 
1

>  <reference_id>  (676) 
82

>  <inspiration_ids>  (676) 
[82, 89]

>  <energy_score>  (676) 
722.9382901297687

>  <distance_score>  (676) 
5.186326038602847

>  <path>  (676) 
/opt/xchem-fragalysis-2/maxwin/BulkDock/SCRATCH/511021/C52891-P82/C52891-P82.minimised.mol

>  <scratch_subdir>  (676) 
/opt/xchem-fragalysis-2/maxwin/BulkDock/SCRATCH/511021/C52891-P82

>  <fragmenstein_runtime>  (676) 
18.713578939437866

>  <fragmenstein_outcome>  (676) 
too moved

>  <fragmenstein_mode>  (676) 
expansion

>  <fragmenstein_error>  (676) 


$$$$
C52892-P82
     RDKit          3D

 37 39  0  0  0  0  0  0  0  0999 V2000
   -9.2316  -25.3585   32.8918 C   0  0  0  0  0  0  0  0  0  0  0  0
   -8.8233  -25.4459   31.4642 C   0  0  0  0  0  0  0  0  0  0  0  0
   -9.8438  -25.3186   30.5528 C   0  0  0  0  0  0  0  0  0  0  0  0
   -9.4330  -25.0707   29.2748 C   0  0  0  0  0  0  0  0  0  0  0  0
   -7.9868  -24.7877   28.9424 C   0  0  0  0  0  0  0  0  0  0  0  0
   -6.7797  -24.4835   29.6613 C   0  0  0  0  0  0  0  0  0  0  0  0
   -4.8552  -24.0680   28.9907 C   0  0  0  0  0  0  0  0  0  0  0  0
   -3.2407  -23.6059   29.6250 O   0  0  0  0  0  0  0  0  0  0  0  0
   -1.4435  -23.3829   28.8656 N   0  0  0  0  0  0  0  0  0  0  0  0
   -0.5560  -21.9445   28.4336 C   0  0  0  0  0  0  0  0  0  0  0  0
   -0.9603  -20.8088   28.4444 O   0  0  0  0  0  0  0  0  0  0  0  0
    1.4447  -22.2769   28.0343 C   0  0  0  0  0  0  0  0  0  0  0  0
    2.6254  -22.8545   27.1195 C   0  0  0  0  0  0  0  0  0  0  0  0
    4.0485  -22.8629   27.4049 C   0  0  0  0  0  0  0  0  0  0  0  0
    4.6036  -22.5441   28.7050 C   0  0  0  0  0  0  0  0  0  0  0  0
    3.9268  -22.0918   29.8961 C   0  0  0  0  0  0  0  0  0  0  0  0
    2.2995  -21.6306   29.5845 C   0  0  0  0  0  0  0  0  0  0  0  0
    2.1059  -20.7017   30.8524 C   0  0  0  0  0  0  0  0  0  0  0  0
    3.3571  -21.0061   31.8625 C   0  0  0  0  0  0  0  0  0  0  0  0
    4.4156  -21.7456   31.1587 O   0  0  0  0  0  0  0  0  0  0  0  0
   -7.4105  -25.3113   31.1141 N   0  0  0  0  0  0  0  0  0  0  0  0
  -10.1529  -25.9126   33.0976 H   0  0  0  0  0  0  0  0  0  0  0  0
   -9.4271  -24.3044   33.0896 H   0  0  0  0  0  0  0  0  0  0  0  0
   -8.4437  -25.7127   33.5447 H   0  0  0  0  0  0  0  0  0  0  0  0
  -10.8867  -25.4414   30.8145 H   0  0  0  0  0  0  0  0  0  0  0  0
  -10.1355  -25.1756   28.4487 H   0  0  0  0  0  0  0  0  0  0  0  0
   -7.8820  -25.7636   28.3976 H   0  0  0  0  0  0  0  0  0  0  0  0
   -4.4525  -25.0187   28.7438 H   0  0  0  0  0  0  0  0  0  0  0  0
   -4.6571  -23.5508   29.9752 H   0  0  0  0  0  0  0  0  0  0  0  0
   -0.8249  -24.1807   28.8394 H   0  0  0  0  0  0  0  0  0  0  0  0
    2.4296  -23.5366   26.2899 H   0  0  0  0  0  0  0  0  0  0  0  0
    4.7307  -23.2349   26.6373 H   0  0  0  0  0  0  0  0  0  0  0  0
    5.6124  -22.5185   28.7780 H   0  0  0  0  0  0  0  0  0  0  0  0
    2.3232  -19.6562   30.7953 H   0  0  0  0  0  0  0  0  0  0  0  0
    1.0861  -20.4115   30.9822 H   0  0  0  0  0  0  0  0  0  0  0  0
    3.1851  -21.2862   32.9011 H   0  0  0  0  0  0  0  0  0  0  0  0
    3.8833  -20.1221   32.0692 H   0  0  0  0  0  0  0  0  0  0  0  0
  1  2  1  0
  2  3  2  0
  3  4  1  0
  4  5  2  0
  5  6  1  0
  6  7  1  0
  7  8  1  0
  8  9  1  0
  9 10  1  0
 10 11  2  0
 10 12  1  0
 12 13  2  0
 13 14  1  0
 14 15  2  0
 15 16  1  0
 16 17  2  0
 17 18  1  0
 18 19  1  0
 19 20  1  0
  6 21  2  0
 21  2  1  0
 17 12  1  0
 20 16  1  0
  1 22  1  0
  1 23  1  0
  1 24  1  0
  3 25  1  0
  4 26  1  0
  5 27  1  0
  7 28  1  0
  7 29  1  0
  9 30  1  0
 13 31  1  0
 14 32  1  0
 15 33  1  0
 18 34  1  0
 18 35  1  0
 19 36  1  0
 19 37  1  0
M  END
>  <Energy>  (677) 
922.93834733600079

>  <compound_id>  (677) 
52892

>  <target_id>  (677) 
1

>  <reference_id>  (677) 
82

>  <inspiration_ids>  (677) 
[82, 89]

>  <energy_score>  (677) 
798.315295636019

>  <distance_score>  (677) 
3.281616201595197

>  <path>  (677) 
/opt/xchem-fragalysis-2/maxwin/BulkDock/SCRATCH/511021/C52892-P82/C52892-P82.minimised.mol

>  <scratch_subdir>  (677) 
/opt/xchem-fragalysis-2/maxwin/BulkDock/SCRATCH/511021/C52892-P82

>  <fragmenstein_runtime>  (677) 
28.635077238082886

>  <fragmenstein_outcome>  (677) 
too moved

>  <fragmenstein_mode>  (677) 
expansion

>  <fragmenstein_error>  (677) 


$$$$
C52893-P82
     RDKit          3D

 47 48  0  0  0  0  0  0  0  0999 V2000
    2.3356  -20.7629   33.4175 C   0  0  0  0  0  0  0  0  0  0  0  0
    2.2589  -20.6992   31.8188 C   0  0  0  0  0  0  0  0  0  0  0  0
    0.5307  -19.6027   31.0707 C   0  0  0  0  0  0  0  0  0  0  0  0
   -1.2580  -20.2316   31.2422 N   0  0  0  0  0  0  0  0  0  0  0  0
   -2.1291  -21.5662   30.3139 C   0  0  0  0  0  0  0  0  0  0  0  0
   -1.5354  -22.0151   29.4186 O   0  0  0  0  0  0  0  0  0  0  0  0
   -3.9244  -22.7251   30.6374 C   0  0  0  0  0  0  0  0  0  0  0  0
   -5.3562  -23.9986   31.6673 C   0  0  0  0  0  0  0  0  0  0  0  0
   -7.1029  -25.0183   31.9715 N   0  0  0  0  0  0  0  0  0  0  0  0
   -7.7597  -25.6722   33.0429 C   0  0  0  0  0  0  0  0  0  0  0  0
   -9.0530  -25.4566   33.3813 C   0  0  0  0  0  0  0  0  0  0  0  0
  -10.0958  -24.9105   32.6129 C   0  0  0  0  0  0  0  0  0  0  0  0
   -9.8764  -24.9924   31.3257 C   0  0  0  0  0  0  0  0  0  0  0  0
   -8.4809  -25.1401   30.8490 C   0  0  0  0  0  0  0  0  0  0  0  0
   -8.4082  -24.9682   29.6107 O   0  0  0  0  0  0  0  0  0  0  0  0
    3.9328  -20.9550   31.4570 N   0  0  0  0  0  0  0  0  0  0  0  0
    5.1218  -19.7855   30.7854 C   0  0  0  0  0  0  0  0  0  0  0  0
    5.0207  -18.5899   30.5746 O   0  0  0  0  0  0  0  0  0  0  0  0
    6.3240  -20.2604   30.2641 C   0  0  0  0  0  0  0  0  0  0  0  0
    5.3970  -21.4643   28.9750 C   0  0  0  0  0  0  0  0  0  0  0  0
    4.8655  -21.1134   27.4141 C   0  0  0  0  0  0  0  0  0  0  0  0
    4.4373  -21.9974   26.4236 C   0  0  0  0  0  0  0  0  0  0  0  0
    4.5233  -23.2991   26.6729 C   0  0  0  0  0  0  0  0  0  0  0  0
    4.2652  -24.2584   25.7894 F   0  0  0  0  0  0  0  0  0  0  0  0
    4.9234  -23.5767   27.9330 C   0  0  0  0  0  0  0  0  0  0  0  0
    5.1461  -22.7388   29.1362 N   0  0  0  0  0  0  0  0  0  0  0  0
    3.1918  -21.3397   33.6616 H   0  0  0  0  0  0  0  0  0  0  0  0
    2.2922  -19.9017   34.0801 H   0  0  0  0  0  0  0  0  0  0  0  0
    1.4323  -21.2333   33.7353 H   0  0  0  0  0  0  0  0  0  0  0  0
    2.6695  -19.8174   31.3276 H   0  0  0  0  0  0  0  0  0  0  0  0
    0.6271  -20.0569   30.0900 H   0  0  0  0  0  0  0  0  0  0  0  0
    0.5683  -18.5571   30.7152 H   0  0  0  0  0  0  0  0  0  0  0  0
   -1.9012  -19.8624   31.9380 H   0  0  0  0  0  0  0  0  0  0  0  0
   -3.6676  -23.6438   30.1251 H   0  0  0  0  0  0  0  0  0  0  0  0
   -4.3484  -22.4411   29.7016 H   0  0  0  0  0  0  0  0  0  0  0  0
   -5.8074  -23.1962   31.9876 H   0  0  0  0  0  0  0  0  0  0  0  0
   -5.8356  -24.1332   30.6988 H   0  0  0  0  0  0  0  0  0  0  0  0
   -7.1660  -26.3096   33.6752 H   0  0  0  0  0  0  0  0  0  0  0  0
   -9.4907  -25.8150   34.2794 H   0  0  0  0  0  0  0  0  0  0  0  0
  -11.0813  -24.7274   33.0257 H   0  0  0  0  0  0  0  0  0  0  0  0
  -10.6400  -24.7981   30.5835 H   0  0  0  0  0  0  0  0  0  0  0  0
    4.3064  -21.8927   31.4264 H   0  0  0  0  0  0  0  0  0  0  0  0
    7.0526  -20.3981   31.0482 H   0  0  0  0  0  0  0  0  0  0  0  0
    6.9298  -19.6769   29.6188 H   0  0  0  0  0  0  0  0  0  0  0  0
    5.0240  -20.1041   27.0298 H   0  0  0  0  0  0  0  0  0  0  0  0
    4.0846  -21.5959   25.5065 H   0  0  0  0  0  0  0  0  0  0  0  0
    5.1786  -24.6336   28.0413 H   0  0  0  0  0  0  0  0  0  0  0  0
  1  2  1  0
  2  3  1  0
  3  4  1  0
  4  5  1  0
  5  6  2  0
  5  7  1  0
  7  8  1  0
  8  9  1  0
  9 10  1  0
 10 11  2  0
 11 12  1  0
 12 13  2  0
 13 14  1  0
 14 15  2  0
  2 16  1  0
 16 17  1  0
 17 18  2  0
 17 19  1  0
 19 20  1  0
 20 21  2  0
 21 22  1  0
 22 23  2  0
 23 24  1  0
 23 25  1  0
 25 26  2  0
 14  9  1  0
 26 20  1  0
  1 27  1  0
  1 28  1  0
  1 29  1  0
  2 30  1  0
  3 31  1  0
  3 32  1  0
  4 33  1  0
  7 34  1  0
  7 35  1  0
  8 36  1  0
  8 37  1  0
 10 38  1  0
 11 39  1  0
 12 40  1  0
 13 41  1  0
 16 42  1  0
 19 43  1  0
 19 44  1  0
 21 45  1  0
 22 46  1  0
 25 47  1  0
M  END
>  <Energy>  (678) 
1096.6162474552902

>  <compound_id>  (678) 
52893

>  <target_id>  (678) 
1

>  <reference_id>  (678) 
82

>  <inspiration_ids>  (678) 
[82, 89]

>  <energy_score>  (678) 
1031.7371561081522

>  <distance_score>  (678) 
2.3901960501219457

>  <path>  (678) 
/opt/xchem-fragalysis-2/maxwin/BulkDock/SCRATCH/511021/C52893-P82/C52893-P82.minimised.mol

>  <scratch_subdir>  (678) 
/opt/xchem-fragalysis-2/maxwin/BulkDock/SCRATCH/511021/C52893-P82

>  <fragmenstein_runtime>  (678) 
27.44458556175232

>  <fragmenstein_outcome>  (678) 
too moved

>  <fragmenstein_mode>  (678) 
expansion

>  <fragmenstein_error>  (678) 


$$$$
C52897-P82
     RDKit          3D

 38 40  0  0  0  0  0  0  0  0999 V2000
  -12.7624  -24.1131   25.6040 C   0  0  0  0  0  0  0  0  0  0  0  0
  -12.0070  -24.3073   26.8090 N   0  0  0  0  0  0  0  0  0  0  0  0
  -11.7119  -25.4959   27.5513 C   0  0  0  0  0  0  0  0  0  0  0  0
  -12.0850  -26.6241   27.4017 O   0  0  0  0  0  0  0  0  0  0  0  0
  -10.6789  -25.2808   28.6389 C   0  0  0  0  0  0  0  0  0  0  0  0
   -9.4159  -24.7116   28.3124 C   0  0  0  0  0  0  0  0  0  0  0  0
   -8.1641  -24.7715   29.1478 C   0  0  0  0  0  0  0  0  0  0  0  0
   -6.6138  -24.0661   28.6321 N   0  0  0  0  0  0  0  0  0  0  0  0
   -4.6013  -23.8849   28.3425 C   0  0  0  0  0  0  0  0  0  0  0  0
   -3.1147  -24.8226   27.2952 C   0  0  0  0  0  0  0  0  0  0  0  0
   -1.9697  -23.6985   27.8486 C   0  0  0  0  0  0  0  0  0  0  0  0
   -0.7514  -22.7879   28.1726 C   0  0  0  0  0  0  0  0  0  0  0  0
    0.5678  -23.1313   27.3645 C   0  0  0  0  0  0  0  0  0  0  0  0
   -0.0457  -23.8121   25.9343 C   0  0  0  0  0  0  0  0  0  0  0  0
   -1.7368  -24.6896   26.1240 C   0  0  0  0  0  0  0  0  0  0  0  0
    0.9862  -23.9592   25.2250 O   0  0  0  0  0  0  0  0  0  0  0  0
    2.5044  -23.7598   26.1881 C   0  0  0  0  0  0  0  0  0  0  0  0
    2.1907  -22.8539   27.2960 C   0  0  0  0  0  0  0  0  0  0  0  0
   -8.7200  -25.1812   30.4806 C   0  0  0  0  0  0  0  0  0  0  0  0
  -10.0250  -25.6651   30.7489 C   0  0  0  0  0  0  0  0  0  0  0  0
  -10.9931  -25.7666   29.8435 N   0  0  0  0  0  0  0  0  0  0  0  0
  -12.7021  -25.0174   24.9935 H   0  0  0  0  0  0  0  0  0  0  0  0
  -12.3584  -23.2598   25.0581 H   0  0  0  0  0  0  0  0  0  0  0  0
  -13.8035  -23.9317   25.8649 H   0  0  0  0  0  0  0  0  0  0  0  0
  -11.5798  -23.5145   27.2721 H   0  0  0  0  0  0  0  0  0  0  0  0
   -9.5030  -24.1650   27.3723 H   0  0  0  0  0  0  0  0  0  0  0  0
   -6.9572  -23.2319   28.1213 H   0  0  0  0  0  0  0  0  0  0  0  0
   -4.7969  -23.0661   27.6456 H   0  0  0  0  0  0  0  0  0  0  0  0
   -4.2184  -23.6880   29.3320 H   0  0  0  0  0  0  0  0  0  0  0  0
   -2.2532  -23.1292   27.1084 H   0  0  0  0  0  0  0  0  0  0  0  0
   -0.8912  -21.8474   28.7334 H   0  0  0  0  0  0  0  0  0  0  0  0
   -1.1987  -25.4983   25.6904 H   0  0  0  0  0  0  0  0  0  0  0  0
    2.9026  -24.7386   26.4954 H   0  0  0  0  0  0  0  0  0  0  0  0
    3.3497  -23.2972   25.6518 H   0  0  0  0  0  0  0  0  0  0  0  0
    3.2004  -22.8997   27.7704 H   0  0  0  0  0  0  0  0  0  0  0  0
    2.2398  -21.8672   27.5403 H   0  0  0  0  0  0  0  0  0  0  0  0
   -8.1396  -25.3374   31.4022 H   0  0  0  0  0  0  0  0  0  0  0  0
  -10.2745  -26.0353   31.7418 H   0  0  0  0  0  0  0  0  0  0  0  0
  1  2  1  0
  2  3  1  0
  3  4  2  0
  3  5  1  0
  5  6  2  0
  6  7  1  0
  7  8  1  0
  8  9  1  0
  9 10  1  0
 10 11  2  0
 11 12  1  0
 12 13  2  0
 13 14  1  0
 14 15  2  0
 14 16  1  0
 16 17  1  0
 17 18  1  0
  7 19  2  0
 19 20  1  0
 20 21  2  0
 21  5  1  0
 15 10  1  0
 18 13  1  0
  1 22  1  0
  1 23  1  0
  1 24  1  0
  2 25  1  0
  6 26  1  0
  8 27  1  0
  9 28  1  0
  9 29  1  0
 11 30  1  0
 12 31  1  0
 15 32  1  0
 17 33  1  0
 17 34  1  0
 18 35  1  0
 18 36  1  0
 19 37  1  0
 20 38  1  0
M  END
>  <Energy>  (679) 
950.9247563527523

>  <compound_id>  (679) 
52897

>  <target_id>  (679) 
1

>  <reference_id>  (679) 
82

>  <inspiration_ids>  (679) 
[82, 89]

>  <energy_score>  (679) 
877.3625941333589

>  <distance_score>  (679) 
5.804730520969937

>  <path>  (679) 
/opt/xchem-fragalysis-2/maxwin/BulkDock/SCRATCH/511021/C52897-P82/C52897-P82.minimised.mol

>  <scratch_subdir>  (679) 
/opt/xchem-fragalysis-2/maxwin/BulkDock/SCRATCH/511021/C52897-P82

>  <fragmenstein_runtime>  (679) 
33.413511753082275

>  <fragmenstein_outcome>  (679) 
too moved

>  <fragmenstein_mode>  (679) 
expansion

>  <fragmenstein_error>  (679) 


$$$$
C52901-P82
     RDKit          3D

 38 41  0  0  0  0  0  0  0  0999 V2000
   -4.2249  -20.1897   25.6683 C   0  0  0  0  0  0  0  0  0  0  0  0
   -2.4979  -19.9076   27.0285 C   0  0  0  0  0  0  0  0  0  0  0  0
   -2.2622  -20.8408   28.9059 N   0  0  0  0  0  0  0  0  0  0  0  0
   -3.2658  -21.9808   30.1207 N   0  0  0  0  0  0  0  0  0  0  0  0
   -3.9306  -23.4323   29.6317 C   0  0  0  0  0  0  0  0  0  0  0  0
   -5.8165  -24.2848   29.9027 C   0  0  0  0  0  0  0  0  0  0  0  0
   -7.1340  -24.2935   29.0970 C   0  0  0  0  0  0  0  0  0  0  0  0
   -8.5570  -24.9257   29.6544 C   0  0  0  0  0  0  0  0  0  0  0  0
   -8.8026  -25.3544   31.0823 C   0  0  0  0  0  0  0  0  0  0  0  0
   -7.6579  -25.2786   31.9810 C   0  0  0  0  0  0  0  0  0  0  0  0
   -6.1312  -24.6173   31.5529 N   0  0  0  0  0  0  0  0  0  0  0  0
   -1.9868  -23.4570   29.0683 N   0  0  0  0  0  0  0  0  0  0  0  0
   -1.3157  -22.1685   28.8627 C   0  0  0  0  0  0  0  0  0  0  0  0
   -0.3010  -21.6296   28.2838 C   0  0  0  0  0  0  0  0  0  0  0  0
    0.8161  -22.4981   27.6486 C   0  0  0  0  0  0  0  0  0  0  0  0
    2.1432  -22.2018   27.9845 C   0  0  0  0  0  0  0  0  0  0  0  0
    2.1491  -21.5072   29.5348 C   0  0  0  0  0  0  0  0  0  0  0  0
    1.1069  -20.7588   30.0040 C   0  0  0  0  0  0  0  0  0  0  0  0
   -0.1130  -20.6398   29.3782 C   0  0  0  0  0  0  0  0  0  0  0  0
   -0.2564  -19.3074   29.3596 O   0  0  0  0  0  0  0  0  0  0  0  0
    0.2911  -18.9176   30.5612 C   0  0  0  0  0  0  0  0  0  0  0  0
    1.4563  -19.7845   30.8141 C   0  0  0  0  0  0  0  0  0  0  0  0
   -3.8901  -19.9622   24.6901 H   0  0  0  0  0  0  0  0  0  0  0  0
   -4.6615  -21.1886   25.6789 H   0  0  0  0  0  0  0  0  0  0  0  0
   -5.2383  -19.7908   25.9467 H   0  0  0  0  0  0  0  0  0  0  0  0
   -2.6040  -18.7888   27.0472 H   0  0  0  0  0  0  0  0  0  0  0  0
   -1.4446  -19.8932   26.8673 H   0  0  0  0  0  0  0  0  0  0  0  0
   -7.1238  -23.5579   28.2839 H   0  0  0  0  0  0  0  0  0  0  0  0
   -9.4056  -24.9471   28.9645 H   0  0  0  0  0  0  0  0  0  0  0  0
   -9.7471  -25.7823   31.3949 H   0  0  0  0  0  0  0  0  0  0  0  0
   -7.6894  -25.7037   32.9740 H   0  0  0  0  0  0  0  0  0  0  0  0
    0.7366  -23.4336   27.1353 H   0  0  0  0  0  0  0  0  0  0  0  0
    3.0507  -22.6340   27.5351 H   0  0  0  0  0  0  0  0  0  0  0  0
    3.0025  -21.7529   30.2061 H   0  0  0  0  0  0  0  0  0  0  0  0
    0.5787  -17.8576   30.5374 H   0  0  0  0  0  0  0  0  0  0  0  0
   -0.5427  -19.1051   31.2050 H   0  0  0  0  0  0  0  0  0  0  0  0
    1.6753  -20.6299   31.4970 H   0  0  0  0  0  0  0  0  0  0  0  0
    2.4086  -19.2898   30.9005 H   0  0  0  0  0  0  0  0  0  0  0  0
  1  2  1  0
  2  3  1  0
  3  4  1  0
  4  5  2  0
  5  6  1  0
  6  7  2  0
  7  8  1  0
  8  9  2  0
  9 10  1  0
 10 11  2  0
  5 12  1  0
 12 13  2  0
 13 14  1  0
 14 15  2  0
 15 16  1  0
 16 17  2  0
 17 18  1  0
 18 19  2  0
 19 20  1  0
 20 21  1  0
 21 22  1  0
 13  3  1  0
 19 14  1  0
 11  6  1  0
 22 18  1  0
  1 23  1  0
  1 24  1  0
  1 25  1  0
  2 26  1  0
  2 27  1  0
  7 28  1  0
  8 29  1  0
  9 30  1  0
 10 31  1  0
 15 32  1  0
 16 33  1  0
 17 34  1  0
 21 35  1  0
 21 36  1  0
 22 37  1  0
 22 38  1  0
M  END
>  <Energy>  (680) 
1315.2644132577441

>  <compound_id>  (680) 
52901

>  <target_id>  (680) 
1

>  <reference_id>  (680) 
82

>  <inspiration_ids>  (680) 
[82, 89]

>  <energy_score>  (680) 
1177.1635179205118

>  <distance_score>  (680) 
4.565087136168711

>  <path>  (680) 
/opt/xchem-fragalysis-2/maxwin/BulkDock/SCRATCH/511021/C52901-P82/C52901-P82.minimised.mol

>  <scratch_subdir>  (680) 
/opt/xchem-fragalysis-2/maxwin/BulkDock/SCRATCH/511021/C52901-P82

>  <fragmenstein_runtime>  (680) 
18.500513315200806

>  <fragmenstein_outcome>  (680) 
too moved

>  <fragmenstein_mode>  (680) 
expansion

>  <fragmenstein_error>  (680) 


$$$$
C52905-P82
     RDKit          3D

 44 45  0  0  0  0  0  0  0  0999 V2000
   -5.7585  -20.4389   32.5271 C   0  0  0  0  0  0  0  0  0  0  0  0
   -4.6526  -21.2757   31.9137 C   0  0  0  0  0  0  0  0  0  0  0  0
   -2.9852  -19.9493   31.0373 C   0  0  0  0  0  0  0  0  0  0  0  0
   -0.9764  -19.4266   31.2056 N   0  0  0  0  0  0  0  0  0  0  0  0
    0.5832  -20.1295   30.4760 C   0  0  0  0  0  0  0  0  0  0  0  0
    0.4049  -20.9802   29.6952 O   0  0  0  0  0  0  0  0  0  0  0  0
    2.5870  -19.9705   30.8595 C   0  0  0  0  0  0  0  0  0  0  0  0
    4.0732  -18.5653   30.2567 C   0  0  0  0  0  0  0  0  0  0  0  0
    3.1524  -20.3421   32.2465 O   0  0  0  0  0  0  0  0  0  0  0  0
    3.6366  -21.7796   30.3337 C   0  0  0  0  0  0  0  0  0  0  0  0
    4.3557  -22.3219   28.5932 N   0  0  0  0  0  0  0  0  0  0  0  0
    5.0634  -23.4260   28.5003 C   0  0  0  0  0  0  0  0  0  0  0  0
    5.2889  -24.2939   27.5008 C   0  0  0  0  0  0  0  0  0  0  0  0
    4.6066  -24.0372   26.3071 C   0  0  0  0  0  0  0  0  0  0  0  0
    4.1790  -22.7902   26.2085 C   0  0  0  0  0  0  0  0  0  0  0  0
    4.4794  -21.7783   27.2370 C   0  0  0  0  0  0  0  0  0  0  0  0
    4.7149  -20.6347   26.8339 O   0  0  0  0  0  0  0  0  0  0  0  0
   -5.5830  -23.2764   31.9478 C   0  0  0  0  0  0  0  0  0  0  0  0
   -7.2388  -23.5811   32.7952 C   0  0  0  0  0  0  0  0  0  0  0  0
   -8.7267  -24.2563   32.7187 C   0  0  0  0  0  0  0  0  0  0  0  0
   -8.7257  -25.4284   32.1942 C   0  0  0  0  0  0  0  0  0  0  0  0
   -7.3762  -25.5334   32.2387 C   0  0  0  0  0  0  0  0  0  0  0  0
   -5.8406  -24.5749   32.0041 N   0  0  0  0  0  0  0  0  0  0  0  0
   -6.0296  -20.5136   33.5617 H   0  0  0  0  0  0  0  0  0  0  0  0
   -5.7132  -19.3765   32.4394 H   0  0  0  0  0  0  0  0  0  0  0  0
   -6.6048  -20.9914   32.2552 H   0  0  0  0  0  0  0  0  0  0  0  0
   -4.3359  -21.8849   32.6967 H   0  0  0  0  0  0  0  0  0  0  0  0
   -2.5196  -20.8074   30.2475 H   0  0  0  0  0  0  0  0  0  0  0  0
   -2.6705  -19.6247   32.1553 H   0  0  0  0  0  0  0  0  0  0  0  0
   -0.7515  -18.7228   31.7154 H   0  0  0  0  0  0  0  0  0  0  0  0
    4.4036  -18.2546   29.2552 H   0  0  0  0  0  0  0  0  0  0  0  0
    3.6635  -17.5603   30.4395 H   0  0  0  0  0  0  0  0  0  0  0  0
    5.0519  -18.8555   30.7176 H   0  0  0  0  0  0  0  0  0  0  0  0
    2.6099  -21.0484   32.6041 H   0  0  0  0  0  0  0  0  0  0  0  0
    4.7197  -21.4651   30.4020 H   0  0  0  0  0  0  0  0  0  0  0  0
    4.1509  -22.0444   31.2849 H   0  0  0  0  0  0  0  0  0  0  0  0
    5.4263  -23.4269   29.4987 H   0  0  0  0  0  0  0  0  0  0  0  0
    5.8896  -25.1867   27.6136 H   0  0  0  0  0  0  0  0  0  0  0  0
    4.4415  -24.8023   25.5761 H   0  0  0  0  0  0  0  0  0  0  0  0
    3.6402  -22.3973   25.3985 H   0  0  0  0  0  0  0  0  0  0  0  0
   -7.5832  -22.6612   33.5249 H   0  0  0  0  0  0  0  0  0  0  0  0
   -9.6023  -23.7594   33.0921 H   0  0  0  0  0  0  0  0  0  0  0  0
   -9.5204  -26.1368   32.2406 H   0  0  0  0  0  0  0  0  0  0  0  0
   -7.1327  -26.3614   32.9488 H   0  0  0  0  0  0  0  0  0  0  0  0
  1  2  1  0
  2  3  1  0
  3  4  1  0
  4  5  1  0
  5  6  2  0
  5  7  1  0
  7  8  1  0
  7  9  1  0
  7 10  1  0
 10 11  1  0
 11 12  1  0
 12 13  2  0
 13 14  1  0
 14 15  2  0
 15 16  1  0
 16 17  2  0
  2 18  1  0
 18 19  2  0
 19 20  1  0
 20 21  2  0
 21 22  1  0
 22 23  2  0
 16 11  1  0
 23 18  1  0
  1 24  1  0
  1 25  1  0
  1 26  1  0
  2 27  1  0
  3 28  1  0
  3 29  1  0
  4 30  1  0
  8 31  1  0
  8 32  1  0
  8 33  1  0
  9 34  1  0
 10 35  1  0
 10 36  1  0
 12 37  1  0
 13 38  1  0
 14 39  1  0
 15 40  1  0
 19 41  1  0
 20 42  1  0
 21 43  1  0
 22 44  1  0
M  END
>  <Energy>  (681) 
1536.1129888596074

>  <compound_id>  (681) 
52905

>  <target_id>  (681) 
1

>  <reference_id>  (681) 
82

>  <inspiration_ids>  (681) 
[82, 89]

>  <energy_score>  (681) 
1426.4589706239829

>  <distance_score>  (681) 
4.0493011599872135

>  <path>  (681) 
/opt/xchem-fragalysis-2/maxwin/BulkDock/SCRATCH/511021/C52905-P82/C52905-P82.minimised.mol

>  <scratch_subdir>  (681) 
/opt/xchem-fragalysis-2/maxwin/BulkDock/SCRATCH/511021/C52905-P82

>  <fragmenstein_runtime>  (681) 
27.848058700561523

>  <fragmenstein_outcome>  (681) 
too moved

>  <fragmenstein_mode>  (681) 
expansion

>  <fragmenstein_error>  (681) 


$$$$
C39638-P2
     RDKit          3D

 41 43  0  0  0  0  0  0  0  0999 V2000
   -6.8192   -8.1565   16.6085 C   0  0  0  0  0  0  0  0  0  0  0  0
   -8.2633   -8.0580   17.1102 C   0  0  0  0  0  0  0  0  0  0  0  0
   -9.2463   -8.4435   15.9461 C   0  0  0  0  0  0  0  0  0  0  0  0
   -9.3694   -9.9452   15.8691 N   0  0  0  0  0  0  0  0  0  0  0  0
  -10.5217  -10.3798   16.6708 C   0  0  0  0  0  0  0  0  0  0  0  0
   -9.3987  -10.5604   14.4915 C   0  0  0  0  0  0  0  0  0  0  0  0
   -9.5829  -12.0697   14.4669 C   0  0  0  0  0  0  0  0  0  0  0  0
  -10.6286  -12.7559   14.0329 N   0  0  0  0  0  0  0  0  0  0  0  0
  -10.4124  -14.0160   14.5290 C   0  0  0  0  0  0  0  0  0  0  0  0
  -11.1916  -15.1723   14.4731 C   0  0  0  0  0  0  0  0  0  0  0  0
  -10.7072  -16.3409   15.0815 C   0  0  0  0  0  0  0  0  0  0  0  0
   -9.4821  -16.3435   15.7503 C   0  0  0  0  0  0  0  0  0  0  0  0
   -8.6814  -15.1998   15.8092 C   0  0  0  0  0  0  0  0  0  0  0  0
   -9.1993  -14.0673   15.1920 C   0  0  0  0  0  0  0  0  0  0  0  0
   -8.6296  -12.8311   15.1053 O   0  0  0  0  0  0  0  0  0  0  0  0
   -8.3220   -6.8106   17.8813 N   0  0  0  0  0  0  0  0  0  0  0  0
   -8.0048   -5.4659   17.5165 C   0  0  0  0  0  0  0  0  0  0  0  0
   -7.6879   -4.9968   16.4635 O   0  0  0  0  0  0  0  0  0  0  0  0
   -7.9959   -4.5791   18.7376 C   0  0  0  0  0  0  0  0  0  0  0  0
   -7.5202   -3.2720   18.7241 C   0  0  0  0  0  0  0  0  0  0  0  0
   -7.2630   -2.6783   20.3145 S   0  0  0  0  0  0  0  0  0  0  0  0
   -7.8216   -4.1722   20.9260 C   0  0  0  0  0  0  0  0  0  0  0  0
   -8.2032   -5.0745   20.0443 N   0  0  0  0  0  0  0  0  0  0  0  0
   -6.0838   -7.8639   17.3540 H   0  0  0  0  0  0  0  0  0  0  0  0
   -6.5871   -9.1738   16.2756 H   0  0  0  0  0  0  0  0  0  0  0  0
   -6.6628   -7.4936   15.7490 H   0  0  0  0  0  0  0  0  0  0  0  0
   -8.4073   -8.8094   17.8948 H   0  0  0  0  0  0  0  0  0  0  0  0
   -8.8600   -8.0492   14.9985 H   0  0  0  0  0  0  0  0  0  0  0  0
  -10.2266   -7.9776   16.1032 H   0  0  0  0  0  0  0  0  0  0  0  0
  -10.5007  -11.4582   16.8559 H   0  0  0  0  0  0  0  0  0  0  0  0
  -10.5088   -9.9099   17.6601 H   0  0  0  0  0  0  0  0  0  0  0  0
  -11.4705  -10.1223   16.1868 H   0  0  0  0  0  0  0  0  0  0  0  0
   -8.4524  -10.3267   13.9905 H   0  0  0  0  0  0  0  0  0  0  0  0
  -10.2075  -10.1007   13.9107 H   0  0  0  0  0  0  0  0  0  0  0  0
  -12.1552  -15.1169   13.9879 H   0  0  0  0  0  0  0  0  0  0  0  0
  -11.3005  -17.2495   15.0609 H   0  0  0  0  0  0  0  0  0  0  0  0
   -9.1492  -17.2394   16.2604 H   0  0  0  0  0  0  0  0  0  0  0  0
   -7.7269  -15.1805   16.3154 H   0  0  0  0  0  0  0  0  0  0  0  0
   -8.4664   -6.8550   18.8880 H   0  0  0  0  0  0  0  0  0  0  0  0
   -7.2423   -2.6836   17.8599 H   0  0  0  0  0  0  0  0  0  0  0  0
   -7.8513   -4.3535   21.9876 H   0  0  0  0  0  0  0  0  0  0  0  0
  1  2  1  0
  2  3  1  0
  3  4  1  0
  4  5  1  0
  4  6  1  0
  6  7  1  0
  7  8  2  0
  8  9  1  0
  9 10  2  0
 10 11  1  0
 11 12  2  0
 12 13  1  0
 13 14  2  0
 14 15  1  0
  2 16  1  0
 16 17  1  0
 17 18  2  0
 17 19  1  0
 19 20  2  0
 20 21  1  0
 21 22  1  0
 22 23  2  0
 15  7  1  0
 23 19  1  0
 14  9  1  0
  1 24  1  0
  1 25  1  0
  1 26  1  0
  2 27  1  0
  3 28  1  0
  3 29  1  0
  5 30  1  0
  5 31  1  0
  5 32  1  0
  6 33  1  0
  6 34  1  0
 10 35  1  0
 11 36  1  0
 12 37  1  0
 13 38  1  0
 16 39  1  0
 20 40  1  0
 22 41  1  0
M  END
>  <Energy>  (682) 
94.993195830030089

>  <compound_id>  (682) 
39638

>  <target_id>  (682) 
1

>  <reference_id>  (682) 
2

>  <inspiration_ids>  (682) 
[2, 59]

>  <energy_score>  (682) 
-91.93897788194244

>  <distance_score>  (682) 
14.46112835100263

>  <path>  (682) 
/opt/xchem-fragalysis-2/maxwin/BulkDock/SCRATCH/511021/C39638-P2/C39638-P2.minimised.mol

>  <scratch_subdir>  (682) 
/opt/xchem-fragalysis-2/maxwin/BulkDock/SCRATCH/511021/C39638-P2

>  <fragmenstein_runtime>  (682) 
19.788369178771973

>  <fragmenstein_outcome>  (682) 
too moved

>  <fragmenstein_mode>  (682) 
expansion

>  <fragmenstein_error>  (682) 


$$$$
C39638-P59
     RDKit          3D

 41 43  0  0  0  0  0  0  0  0999 V2000
  -10.8410  -11.1325   23.8137 C   0  0  0  0  0  0  0  0  0  0  0  0
   -9.3672  -11.2642   22.7861 C   0  0  0  0  0  0  0  0  0  0  0  0
   -9.8641  -12.5488   21.2872 C   0  0  0  0  0  0  0  0  0  0  0  0
   -9.6316  -13.0153   19.5142 N   0  0  0  0  0  0  0  0  0  0  0  0
   -8.7029  -12.3101   18.6119 C   0  0  0  0  0  0  0  0  0  0  0  0
  -10.9285  -13.2001   18.7742 C   0  0  0  0  0  0  0  0  0  0  0  0
  -10.8779  -13.9925   17.5408 C   0  0  0  0  0  0  0  0  0  0  0  0
  -10.4901  -13.5963   16.3417 N   0  0  0  0  0  0  0  0  0  0  0  0
  -10.6488  -14.7134   15.6154 C   0  0  0  0  0  0  0  0  0  0  0  0
  -10.3089  -14.9720   14.3126 C   0  0  0  0  0  0  0  0  0  0  0  0
  -10.3689  -16.3101   13.9768 C   0  0  0  0  0  0  0  0  0  0  0  0
  -11.0050  -17.2548   14.7684 C   0  0  0  0  0  0  0  0  0  0  0  0
  -11.5825  -16.9324   15.9683 C   0  0  0  0  0  0  0  0  0  0  0  0
  -11.2449  -15.6883   16.3813 C   0  0  0  0  0  0  0  0  0  0  0  0
  -11.4374  -15.2240   17.6192 O   0  0  0  0  0  0  0  0  0  0  0  0
   -8.2989  -10.2973   23.4382 N   0  0  0  0  0  0  0  0  0  0  0  0
   -8.2801   -8.5371   23.5917 C   0  0  0  0  0  0  0  0  0  0  0  0
   -9.0875   -7.8605   23.0904 O   0  0  0  0  0  0  0  0  0  0  0  0
   -6.7773   -7.8326   24.9064 C   0  0  0  0  0  0  0  0  0  0  0  0
   -6.4699   -6.4024   25.0538 C   0  0  0  0  0  0  0  0  0  0  0  0
   -5.9151   -5.7047   27.3135 S   0  0  0  0  0  0  0  0  0  0  0  0
   -8.1864   -5.5562   26.9640 C   0  0  0  0  0  0  0  0  0  0  0  0
   -7.2262   -6.4745   26.1902 N   0  0  0  0  0  0  0  0  0  0  0  0
  -10.6330  -11.3577   24.8609 H   0  0  0  0  0  0  0  0  0  0  0  0
  -11.2894  -10.1336   23.7711 H   0  0  0  0  0  0  0  0  0  0  0  0
  -11.6389  -11.7545   23.3970 H   0  0  0  0  0  0  0  0  0  0  0  0
   -9.5904  -10.2390   22.7672 H   0  0  0  0  0  0  0  0  0  0  0  0
  -10.8178  -13.0417   21.6308 H   0  0  0  0  0  0  0  0  0  0  0  0
   -9.2252  -13.2783   21.4369 H   0  0  0  0  0  0  0  0  0  0  0  0
   -8.6231  -12.8118   17.6437 H   0  0  0  0  0  0  0  0  0  0  0  0
   -9.0066  -11.2782   18.4038 H   0  0  0  0  0  0  0  0  0  0  0  0
   -7.6656  -12.3402   18.9514 H   0  0  0  0  0  0  0  0  0  0  0  0
  -11.7077  -13.6185   19.4224 H   0  0  0  0  0  0  0  0  0  0  0  0
  -11.3067  -12.2425   18.3949 H   0  0  0  0  0  0  0  0  0  0  0  0
   -9.9176  -14.1907   13.6793 H   0  0  0  0  0  0  0  0  0  0  0  0
   -9.9546  -16.6673   13.0617 H   0  0  0  0  0  0  0  0  0  0  0  0
  -11.1207  -18.2454   14.3500 H   0  0  0  0  0  0  0  0  0  0  0  0
  -12.2144  -17.5581   16.5650 H   0  0  0  0  0  0  0  0  0  0  0  0
   -7.4555  -10.6773   23.8813 H   0  0  0  0  0  0  0  0  0  0  0  0
   -7.1672   -5.7688   24.4137 H   0  0  0  0  0  0  0  0  0  0  0  0
   -8.1697   -4.9453   27.8562 H   0  0  0  0  0  0  0  0  0  0  0  0
  1  2  1  0
  2  3  1  0
  3  4  1  0
  4  5  1  0
  4  6  1  0
  6  7  1  0
  7  8  2  0
  8  9  1  0
  9 10  2  0
 10 11  1  0
 11 12  2  0
 12 13  1  0
 13 14  2  0
 14 15  1  0
  2 16  1  0
 16 17  1  0
 17 18  2  0
 17 19  1  0
 19 20  2  0
 20 21  1  0
 21 22  1  0
 22 23  2  0
 15  7  1  0
 23 19  1  0
 14  9  1  0
  1 24  1  0
  1 25  1  0
  1 26  1  0
  2 27  1  0
  3 28  1  0
  3 29  1  0
  5 30  1  0
  5 31  1  0
  5 32  1  0
  6 33  1  0
  6 34  1  0
 10 35  1  0
 11 36  1  0
 12 37  1  0
 13 38  1  0
 16 39  1  0
 20 40  1  0
 22 41  1  0
M  END
>  <Energy>  (683) 
986.31541700506659

>  <compound_id>  (683) 
39638

>  <target_id>  (683) 
1

>  <reference_id>  (683) 
59

>  <inspiration_ids>  (683) 
[2, 59]

>  <energy_score>  (683) 
799.3832432930974

>  <distance_score>  (683) 
12.36374157244939

>  <path>  (683) 
/opt/xchem-fragalysis-2/maxwin/BulkDock/SCRATCH/511021/C39638-P59/C39638-P59.minimised.mol

>  <scratch_subdir>  (683) 
/opt/xchem-fragalysis-2/maxwin/BulkDock/SCRATCH/511021/C39638-P59

>  <fragmenstein_runtime>  (683) 
20.330994367599487

>  <fragmenstein_outcome>  (683) 
too moved

>  <fragmenstein_mode>  (683) 
expansion

>  <fragmenstein_error>  (683) 


$$$$
C39639-P2
     RDKit          3D

 41 43  0  0  0  0  0  0  0  0999 V2000
   -9.5035  -10.0173   23.0614 C   0  0  0  0  0  0  0  0  0  0  0  0
   -9.2982  -11.5126   22.9747 C   0  0  0  0  0  0  0  0  0  0  0  0
   -9.8538  -12.6851   21.4364 C   0  0  0  0  0  0  0  0  0  0  0  0
   -9.7303  -12.8403   19.4248 N   0  0  0  0  0  0  0  0  0  0  0  0
   -8.4021  -12.9885   18.8774 C   0  0  0  0  0  0  0  0  0  0  0  0
  -10.6945  -11.8705   18.1299 C   0  0  0  0  0  0  0  0  0  0  0  0
  -11.6019  -11.9421   16.5048 C   0  0  0  0  0  0  0  0  0  0  0  0
  -12.8059  -11.4372   16.2482 N   0  0  0  0  0  0  0  0  0  0  0  0
  -13.2159  -12.0687   15.0803 C   0  0  0  0  0  0  0  0  0  0  0  0
  -14.4472  -12.0526   14.4165 C   0  0  0  0  0  0  0  0  0  0  0  0
  -14.6156  -12.8944   13.3120 C   0  0  0  0  0  0  0  0  0  0  0  0
  -13.5770  -13.7076   12.8698 C   0  0  0  0  0  0  0  0  0  0  0  0
  -13.8437  -14.5068   11.8339 F   0  0  0  0  0  0  0  0  0  0  0  0
  -12.3198  -13.7170   13.4776 C   0  0  0  0  0  0  0  0  0  0  0  0
  -12.2137  -12.8789   14.5850 C   0  0  0  0  0  0  0  0  0  0  0  0
  -11.1573  -12.7277   15.4252 O   0  0  0  0  0  0  0  0  0  0  0  0
   -9.4662  -11.0494   24.7423 N   0  0  0  0  0  0  0  0  0  0  0  0
   -8.1761  -10.6063   25.9815 C   0  0  0  0  0  0  0  0  0  0  0  0
   -6.9906  -10.6915   25.8009 O   0  0  0  0  0  0  0  0  0  0  0  0
   -8.7491   -9.7067   27.6741 C   0  0  0  0  0  0  0  0  0  0  0  0
   -8.0163   -9.3244   28.9693 C   0  0  0  0  0  0  0  0  0  0  0  0
   -9.0947   -8.9899   30.3459 S   0  0  0  0  0  0  0  0  0  0  0  0
  -10.4360   -8.9289   29.2712 C   0  0  0  0  0  0  0  0  0  0  0  0
  -10.2448   -9.2474   27.9930 N   0  0  0  0  0  0  0  0  0  0  0  0
  -10.5573  -10.0378   23.4350 H   0  0  0  0  0  0  0  0  0  0  0  0
   -9.6932   -9.0311   22.5815 H   0  0  0  0  0  0  0  0  0  0  0  0
   -8.5129   -9.6422   23.1358 H   0  0  0  0  0  0  0  0  0  0  0  0
   -8.1969  -11.5609   22.7828 H   0  0  0  0  0  0  0  0  0  0  0  0
  -10.8573  -13.0741   21.6768 H   0  0  0  0  0  0  0  0  0  0  0  0
   -9.1990  -13.4285   21.4361 H   0  0  0  0  0  0  0  0  0  0  0  0
   -8.2834  -12.7635   17.8204 H   0  0  0  0  0  0  0  0  0  0  0  0
   -8.3691  -14.0431   18.9656 H   0  0  0  0  0  0  0  0  0  0  0  0
   -7.4852  -12.5725   19.2887 H   0  0  0  0  0  0  0  0  0  0  0  0
  -11.6939  -11.9148   18.4321 H   0  0  0  0  0  0  0  0  0  0  0  0
  -10.6062  -10.8302   18.4094 H   0  0  0  0  0  0  0  0  0  0  0  0
  -15.2589  -11.4329   14.7813 H   0  0  0  0  0  0  0  0  0  0  0  0
  -15.5701  -12.9285   12.7937 H   0  0  0  0  0  0  0  0  0  0  0  0
  -11.5138  -14.3505   13.1367 H   0  0  0  0  0  0  0  0  0  0  0  0
  -10.3945  -10.9685   25.1703 H   0  0  0  0  0  0  0  0  0  0  0  0
   -6.9543   -9.3492   29.1629 H   0  0  0  0  0  0  0  0  0  0  0  0
  -11.4175   -8.6663   29.6432 H   0  0  0  0  0  0  0  0  0  0  0  0
  1  2  1  0
  2  3  1  0
  3  4  1  0
  4  5  1  0
  4  6  1  0
  6  7  1  0
  7  8  2  0
  8  9  1  0
  9 10  2  0
 10 11  1  0
 11 12  2  0
 12 13  1  0
 12 14  1  0
 14 15  2  0
 15 16  1  0
  2 17  1  0
 17 18  1  0
 18 19  2  0
 18 20  1  0
 20 21  2  0
 21 22  1  0
 22 23  1  0
 23 24  2  0
 16  7  1  0
 24 20  1  0
 15  9  1  0
  1 25  1  0
  1 26  1  0
  1 27  1  0
  2 28  1  0
  3 29  1  0
  3 30  1  0
  5 31  1  0
  5 32  1  0
  5 33  1  0
  6 34  1  0
  6 35  1  0
 10 36  1  0
 11 37  1  0
 14 38  1  0
 17 39  1  0
 21 40  1  0
 23 41  1  0
M  END
>  <Energy>  (684) 
708.4095179340195

>  <compound_id>  (684) 
39639

>  <target_id>  (684) 
1

>  <reference_id>  (684) 
2

>  <inspiration_ids>  (684) 
[2, 59]

>  <energy_score>  (684) 
543.7393927135575

>  <distance_score>  (684) 
13.230739129530578

>  <path>  (684) 
/opt/xchem-fragalysis-2/maxwin/BulkDock/SCRATCH/511021/C39639-P2/C39639-P2.minimised.mol

>  <scratch_subdir>  (684) 
/opt/xchem-fragalysis-2/maxwin/BulkDock/SCRATCH/511021/C39639-P2

>  <fragmenstein_runtime>  (684) 
23.215362310409546

>  <fragmenstein_outcome>  (684) 
too moved

>  <fragmenstein_mode>  (684) 
expansion

>  <fragmenstein_error>  (684) 


$$$$
C39639-P59
     RDKit          3D

 41 43  0  0  0  0  0  0  0  0999 V2000
   -5.2141   -8.5528   15.9290 C   0  0  0  0  0  0  0  0  0  0  0  0
   -3.9376   -9.4075   15.9983 C   0  0  0  0  0  0  0  0  0  0  0  0
   -3.4771  -10.1035   14.6399 C   0  0  0  0  0  0  0  0  0  0  0  0
   -4.5585  -10.5959   13.6965 N   0  0  0  0  0  0  0  0  0  0  0  0
   -4.7900   -9.5615   12.6778 C   0  0  0  0  0  0  0  0  0  0  0  0
   -4.2406  -11.9330   13.0325 C   0  0  0  0  0  0  0  0  0  0  0  0
   -5.0960  -12.3837   11.8436 C   0  0  0  0  0  0  0  0  0  0  0  0
   -6.3612  -12.1241   11.5500 N   0  0  0  0  0  0  0  0  0  0  0  0
   -6.4963  -12.5155   10.2437 C   0  0  0  0  0  0  0  0  0  0  0  0
   -7.5643  -12.3706    9.3476 C   0  0  0  0  0  0  0  0  0  0  0  0
   -7.3673  -12.7843    8.0252 C   0  0  0  0  0  0  0  0  0  0  0  0
   -6.1554  -13.3552    7.6304 C   0  0  0  0  0  0  0  0  0  0  0  0
   -5.9869  -13.6699    6.3385 F   0  0  0  0  0  0  0  0  0  0  0  0
   -5.0995  -13.5603    8.5153 C   0  0  0  0  0  0  0  0  0  0  0  0
   -5.3217  -13.1016    9.8061 C   0  0  0  0  0  0  0  0  0  0  0  0
   -4.4366  -13.0885   10.8487 O   0  0  0  0  0  0  0  0  0  0  0  0
   -2.9506   -8.5657   16.7186 N   0  0  0  0  0  0  0  0  0  0  0  0
   -1.6828   -8.8890   17.2936 C   0  0  0  0  0  0  0  0  0  0  0  0
   -1.0523   -9.9046   17.2725 O   0  0  0  0  0  0  0  0  0  0  0  0
   -1.1826   -7.7248   18.1239 C   0  0  0  0  0  0  0  0  0  0  0  0
   -0.0321   -7.7499   18.9020 C   0  0  0  0  0  0  0  0  0  0  0  0
    0.1104   -6.3302   19.8658 S   0  0  0  0  0  0  0  0  0  0  0  0
   -1.3387   -5.7451   19.1714 C   0  0  0  0  0  0  0  0  0  0  0  0
   -1.9158   -6.5300   18.2808 N   0  0  0  0  0  0  0  0  0  0  0  0
   -5.5071   -8.1577   16.9030 H   0  0  0  0  0  0  0  0  0  0  0  0
   -5.0652   -7.6907   15.2700 H   0  0  0  0  0  0  0  0  0  0  0  0
   -6.0559   -9.1382   15.5462 H   0  0  0  0  0  0  0  0  0  0  0  0
   -4.1439  -10.2439   16.6765 H   0  0  0  0  0  0  0  0  0  0  0  0
   -2.7889   -9.4324   14.1086 H   0  0  0  0  0  0  0  0  0  0  0  0
   -2.8601  -10.9618   14.9392 H   0  0  0  0  0  0  0  0  0  0  0  0
   -5.7138   -9.7455   12.1228 H   0  0  0  0  0  0  0  0  0  0  0  0
   -4.9187   -8.5748   13.1335 H   0  0  0  0  0  0  0  0  0  0  0  0
   -3.9574   -9.4948   11.9679 H   0  0  0  0  0  0  0  0  0  0  0  0
   -4.3125  -12.7084   13.8038 H   0  0  0  0  0  0  0  0  0  0  0  0
   -3.1980  -11.9005   12.6901 H   0  0  0  0  0  0  0  0  0  0  0  0
   -8.4891  -11.9026    9.6680 H   0  0  0  0  0  0  0  0  0  0  0  0
   -8.1469  -12.6258    7.2855 H   0  0  0  0  0  0  0  0  0  0  0  0
   -4.1598  -13.9893    8.1960 H   0  0  0  0  0  0  0  0  0  0  0  0
   -3.2171   -7.6271   17.0115 H   0  0  0  0  0  0  0  0  0  0  0  0
    0.6934   -8.5484   18.9734 H   0  0  0  0  0  0  0  0  0  0  0  0
   -1.7552   -4.7858   19.4516 H   0  0  0  0  0  0  0  0  0  0  0  0
  1  2  1  0
  2  3  1  0
  3  4  1  0
  4  5  1  0
  4  6  1  0
  6  7  1  0
  7  8  2  0
  8  9  1  0
  9 10  2  0
 10 11  1  0
 11 12  2  0
 12 13  1  0
 12 14  1  0
 14 15  2  0
 15 16  1  0
  2 17  1  0
 17 18  1  0
 18 19  2  0
 18 20  1  0
 20 21  2  0
 21 22  1  0
 22 23  1  0
 23 24  2  0
 16  7  1  0
 24 20  1  0
 15  9  1  0
  1 25  1  0
  1 26  1  0
  1 27  1  0
  2 28  1  0
  3 29  1  0
  3 30  1  0
  5 31  1  0
  5 32  1  0
  5 33  1  0
  6 34  1  0
  6 35  1  0
 10 36  1  0
 11 37  1  0
 14 38  1  0
 17 39  1  0
 21 40  1  0
 23 41  1  0
M  END
>  <Energy>  (685) 
84.520886067096725

>  <compound_id>  (685) 
39639

>  <target_id>  (685) 
1

>  <reference_id>  (685) 
59

>  <inspiration_ids>  (685) 
[2, 59]

>  <energy_score>  (685) 
-80.14923915336402

>  <distance_score>  (685) 
14.365721457998502

>  <path>  (685) 
/opt/xchem-fragalysis-2/maxwin/BulkDock/SCRATCH/511021/C39639-P59/C39639-P59.minimised.mol

>  <scratch_subdir>  (685) 
/opt/xchem-fragalysis-2/maxwin/BulkDock/SCRATCH/511021/C39639-P59

>  <fragmenstein_runtime>  (685) 
20.071436405181885

>  <fragmenstein_outcome>  (685) 
too moved

>  <fragmenstein_mode>  (685) 
expansion

>  <fragmenstein_error>  (685) 


$$$$
C38744-P2
     RDKit          3D

 41 43  0  0  0  0  0  0  0  0999 V2000
   -4.3037  -15.6834   17.4977 C   0  0  0  0  0  0  0  0  0  0  0  0
   -4.4702  -15.1299   16.1932 O   0  0  0  0  0  0  0  0  0  0  0  0
   -5.3353  -14.0836   16.1390 C   0  0  0  0  0  0  0  0  0  0  0  0
   -5.9626  -13.6394   17.0842 O   0  0  0  0  0  0  0  0  0  0  0  0
   -5.3886  -13.5588   14.7586 C   0  0  0  0  0  0  0  0  0  0  0  0
   -4.5112  -13.9781   13.7385 C   0  0  0  0  0  0  0  0  0  0  0  0
   -4.5507  -13.4210   12.4515 C   0  0  0  0  0  0  0  0  0  0  0  0
   -5.4813  -12.4275   12.1260 C   0  0  0  0  0  0  0  0  0  0  0  0
   -6.3486  -11.9817   13.1357 C   0  0  0  0  0  0  0  0  0  0  0  0
   -7.2927  -10.9879   13.1226 N   0  0  0  0  0  0  0  0  0  0  0  0
   -7.6691  -10.8922   14.3821 C   0  0  0  0  0  0  0  0  0  0  0  0
   -8.3865   -9.8851   14.9336 N   0  0  0  0  0  0  0  0  0  0  0  0
   -8.4362   -9.5858   16.3964 C   0  0  0  0  0  0  0  0  0  0  0  0
   -8.2635   -8.0490   16.8931 C   0  0  0  0  0  0  0  0  0  0  0  0
   -9.2428   -7.1465   16.1212 C   0  0  0  0  0  0  0  0  0  0  0  0
   -8.7499   -7.9131   18.3640 C   0  0  0  0  0  0  0  0  0  0  0  0
   -6.8969   -7.5158   16.7169 N   0  0  0  0  0  0  0  0  0  0  0  0
   -5.7469   -8.1843   16.3992 C   0  0  0  0  0  0  0  0  0  0  0  0
   -4.7884   -7.2351   16.1316 C   0  0  0  0  0  0  0  0  0  0  0  0
   -5.4333   -6.0098   16.3253 C   0  0  0  0  0  0  0  0  0  0  0  0
   -6.7116   -6.1770   16.6683 N   0  0  0  0  0  0  0  0  0  0  0  0
   -7.1780  -11.8818   15.1876 O   0  0  0  0  0  0  0  0  0  0  0  0
   -6.2787  -12.5495   14.4008 C   0  0  0  0  0  0  0  0  0  0  0  0
   -3.8391  -14.9500   18.1639 H   0  0  0  0  0  0  0  0  0  0  0  0
   -5.2629  -16.0222   17.9016 H   0  0  0  0  0  0  0  0  0  0  0  0
   -3.6395  -16.5482   17.4166 H   0  0  0  0  0  0  0  0  0  0  0  0
   -3.7483  -14.7231   13.9601 H   0  0  0  0  0  0  0  0  0  0  0  0
   -3.8272  -13.7372   11.7037 H   0  0  0  0  0  0  0  0  0  0  0  0
   -5.5113  -11.9776   11.1396 H   0  0  0  0  0  0  0  0  0  0  0  0
   -8.5811   -9.1070   14.3133 H   0  0  0  0  0  0  0  0  0  0  0  0
   -9.4277   -9.9191   16.7298 H   0  0  0  0  0  0  0  0  0  0  0  0
   -7.7210  -10.2178   16.9310 H   0  0  0  0  0  0  0  0  0  0  0  0
  -10.2552   -7.5682   16.1246 H   0  0  0  0  0  0  0  0  0  0  0  0
   -9.3143   -6.1372   16.5429 H   0  0  0  0  0  0  0  0  0  0  0  0
   -8.9428   -7.0351   15.0725 H   0  0  0  0  0  0  0  0  0  0  0  0
   -8.3220   -8.6879   18.9826 H   0  0  0  0  0  0  0  0  0  0  0  0
   -9.8356   -8.0609   18.4205 H   0  0  0  0  0  0  0  0  0  0  0  0
   -8.5430   -6.9261   18.7845 H   0  0  0  0  0  0  0  0  0  0  0  0
   -5.6999   -9.2619   16.3408 H   0  0  0  0  0  0  0  0  0  0  0  0
   -3.7758   -7.4216   15.8128 H   0  0  0  0  0  0  0  0  0  0  0  0
   -5.0349   -5.0069   16.2303 H   0  0  0  0  0  0  0  0  0  0  0  0
  1  2  1  0
  2  3  1  0
  3  4  2  0
  3  5  1  0
  5  6  2  0
  6  7  1  0
  7  8  2  0
  8  9  1  0
  9 10  1  0
 10 11  2  0
 11 12  1  0
 12 13  1  0
 13 14  1  0
 14 15  1  0
 14 16  1  0
 14 17  1  0
 17 18  1  0
 18 19  2  0
 19 20  1  0
 20 21  2  0
 11 22  1  0
 22 23  1  0
 23  5  1  0
 23  9  2  0
 21 17  1  0
  1 24  1  0
  1 25  1  0
  1 26  1  0
  6 27  1  0
  7 28  1  0
  8 29  1  0
 12 30  1  0
 13 31  1  0
 13 32  1  0
 15 33  1  0
 15 34  1  0
 15 35  1  0
 16 36  1  0
 16 37  1  0
 16 38  1  0
 18 39  1  0
 19 40  1  0
 20 41  1  0
M  END
>  <Energy>  (686) 
10.125783814715774

>  <compound_id>  (686) 
38744

>  <target_id>  (686) 
1

>  <reference_id>  (686) 
2

>  <inspiration_ids>  (686) 
[2, 59]

>  <energy_score>  (686) 
-34.08605310165737

>  <distance_score>  (686) 
14.561141078311993

>  <path>  (686) 
/opt/xchem-fragalysis-2/maxwin/BulkDock/SCRATCH/511021/C38744-P2/C38744-P2.minimised.mol

>  <scratch_subdir>  (686) 
/opt/xchem-fragalysis-2/maxwin/BulkDock/SCRATCH/511021/C38744-P2

>  <fragmenstein_runtime>  (686) 
19.186688899993896

>  <fragmenstein_outcome>  (686) 
too moved

>  <fragmenstein_mode>  (686) 
expansion

>  <fragmenstein_error>  (686) 


$$$$
C38744-P59
     RDKit          3D

 41 43  0  0  0  0  0  0  0  0999 V2000
   -8.6415  -20.0615   21.2208 C   0  0  0  0  0  0  0  0  0  0  0  0
   -9.0466  -18.8039   20.6806 O   0  0  0  0  0  0  0  0  0  0  0  0
   -8.8389  -18.6582   19.3475 C   0  0  0  0  0  0  0  0  0  0  0  0
   -8.4252  -19.5408   18.6154 O   0  0  0  0  0  0  0  0  0  0  0  0
   -9.2328  -17.2986   18.9095 C   0  0  0  0  0  0  0  0  0  0  0  0
   -9.6656  -16.9788   17.6052 C   0  0  0  0  0  0  0  0  0  0  0  0
  -10.0790  -15.6932   17.2406 C   0  0  0  0  0  0  0  0  0  0  0  0
  -10.1097  -14.6703   18.1912 C   0  0  0  0  0  0  0  0  0  0  0  0
   -9.6891  -14.9622   19.4987 C   0  0  0  0  0  0  0  0  0  0  0  0
   -9.6490  -14.1903   20.6425 N   0  0  0  0  0  0  0  0  0  0  0  0
   -9.0671  -14.9492   21.5460 C   0  0  0  0  0  0  0  0  0  0  0  0
   -8.6258  -14.7373   22.8160 N   0  0  0  0  0  0  0  0  0  0  0  0
   -9.1111  -13.6829   23.7880 C   0  0  0  0  0  0  0  0  0  0  0  0
   -7.9676  -12.9876   24.7354 C   0  0  0  0  0  0  0  0  0  0  0  0
   -7.2406  -12.0199   23.8314 C   0  0  0  0  0  0  0  0  0  0  0  0
   -6.9574  -14.0205   25.2683 C   0  0  0  0  0  0  0  0  0  0  0  0
   -8.3850  -12.2085   25.9364 N   0  0  0  0  0  0  0  0  0  0  0  0
   -9.5134  -12.3235   26.6987 C   0  0  0  0  0  0  0  0  0  0  0  0
   -9.3052  -11.5783   27.8415 C   0  0  0  0  0  0  0  0  0  0  0  0
   -8.0248  -11.0346   27.6912 C   0  0  0  0  0  0  0  0  0  0  0  0
   -7.4659  -11.3987   26.5381 N   0  0  0  0  0  0  0  0  0  0  0  0
   -8.7983  -16.2154   21.0861 O   0  0  0  0  0  0  0  0  0  0  0  0
   -9.2338  -16.2323   19.7929 C   0  0  0  0  0  0  0  0  0  0  0  0
   -9.2611  -20.8677   20.8180 H   0  0  0  0  0  0  0  0  0  0  0  0
   -8.7809  -20.0252   22.3047 H   0  0  0  0  0  0  0  0  0  0  0  0
   -7.5827  -20.2474   21.0145 H   0  0  0  0  0  0  0  0  0  0  0  0
   -9.7436  -17.7310   16.8379 H   0  0  0  0  0  0  0  0  0  0  0  0
  -10.4091  -15.4930   16.2228 H   0  0  0  0  0  0  0  0  0  0  0  0
  -10.4518  -13.6712   17.9412 H   0  0  0  0  0  0  0  0  0  0  0  0
   -8.2893  -15.5760   23.2748 H   0  0  0  0  0  0  0  0  0  0  0  0
   -9.6495  -12.8960   23.2452 H   0  0  0  0  0  0  0  0  0  0  0  0
   -9.8402  -14.1765   24.4401 H   0  0  0  0  0  0  0  0  0  0  0  0
   -7.0304  -12.4698   22.8625 H   0  0  0  0  0  0  0  0  0  0  0  0
   -6.2919  -11.7610   24.2805 H   0  0  0  0  0  0  0  0  0  0  0  0
   -7.8417  -11.1301   23.6513 H   0  0  0  0  0  0  0  0  0  0  0  0
   -6.1535  -13.5697   25.8620 H   0  0  0  0  0  0  0  0  0  0  0  0
   -7.4603  -14.7581   25.9045 H   0  0  0  0  0  0  0  0  0  0  0  0
   -6.4741  -14.5643   24.4493 H   0  0  0  0  0  0  0  0  0  0  0  0
  -10.3519  -12.9312   26.3924 H   0  0  0  0  0  0  0  0  0  0  0  0
   -9.9900  -11.4517   28.6669 H   0  0  0  0  0  0  0  0  0  0  0  0
   -7.4912  -10.3816   28.3656 H   0  0  0  0  0  0  0  0  0  0  0  0
  1  2  1  0
  2  3  1  0
  3  4  2  0
  3  5  1  0
  5  6  2  0
  6  7  1  0
  7  8  2  0
  8  9  1  0
  9 10  1  0
 10 11  2  0
 11 12  1  0
 12 13  1  0
 13 14  1  0
 14 15  1  0
 14 16  1  0
 14 17  1  0
 17 18  1  0
 18 19  2  0
 19 20  1  0
 20 21  2  0
 11 22  1  0
 22 23  1  0
 23  5  1  0
 23  9  2  0
 21 17  1  0
  1 24  1  0
  1 25  1  0
  1 26  1  0
  6 27  1  0
  7 28  1  0
  8 29  1  0
 12 30  1  0
 13 31  1  0
 13 32  1  0
 15 33  1  0
 15 34  1  0
 15 35  1  0
 16 36  1  0
 16 37  1  0
 16 38  1  0
 18 39  1  0
 19 40  1  0
 20 41  1  0
M  END
>  <Energy>  (687) 
14.876889871069771

>  <compound_id>  (687) 
38744

>  <target_id>  (687) 
1

>  <reference_id>  (687) 
59

>  <inspiration_ids>  (687) 
[2, 59]

>  <energy_score>  (687) 
-29.33494704530287

>  <distance_score>  (687) 
14.165277595352523

>  <path>  (687) 
/opt/xchem-fragalysis-2/maxwin/BulkDock/SCRATCH/511021/C38744-P59/C38744-P59.minimised.mol

>  <scratch_subdir>  (687) 
/opt/xchem-fragalysis-2/maxwin/BulkDock/SCRATCH/511021/C38744-P59

>  <fragmenstein_runtime>  (687) 
15.119532108306885

>  <fragmenstein_outcome>  (687) 
too moved

>  <fragmenstein_mode>  (687) 
expansion

>  <fragmenstein_error>  (687) 


$$$$
C52789-P2
     RDKit          3D

 37 39  0  0  0  0  0  0  0  0999 V2000
   -1.4629   -8.5603   19.5000 C   0  0  0  0  0  0  0  0  0  0  0  0
   -1.6992   -9.5725   20.6504 C   0  0  0  0  0  0  0  0  0  0  0  0
   -0.3970   -9.8574   21.5572 C   0  0  0  0  0  0  0  0  0  0  0  0
   -2.3277  -11.0991   19.9009 C   0  0  0  0  0  0  0  0  0  0  0  0
   -2.2217  -11.5332   18.2811 N   0  0  0  0  0  0  0  0  0  0  0  0
   -2.1325  -12.8579   17.7302 C   0  0  0  0  0  0  0  0  0  0  0  0
   -2.4347  -13.5513   16.6364 N   0  0  0  0  0  0  0  0  0  0  0  0
   -2.4821  -14.9077   16.8662 C   0  0  0  0  0  0  0  0  0  0  0  0
   -3.3931  -16.1178   16.4878 C   0  0  0  0  0  0  0  0  0  0  0  0
   -3.6063  -17.2127   17.4252 C   0  0  0  0  0  0  0  0  0  0  0  0
   -4.3159  -18.2810   17.0442 F   0  0  0  0  0  0  0  0  0  0  0  0
   -3.0284  -17.2499   18.7263 C   0  0  0  0  0  0  0  0  0  0  0  0
   -2.1633  -16.1889   19.1797 C   0  0  0  0  0  0  0  0  0  0  0  0
   -1.8659  -15.0365   18.1707 C   0  0  0  0  0  0  0  0  0  0  0  0
   -1.8194  -13.7908   18.5524 O   0  0  0  0  0  0  0  0  0  0  0  0
   -2.3152   -8.7136   21.8871 C   0  0  0  0  0  0  0  0  0  0  0  0
   -1.6439   -7.5307   22.2703 C   0  0  0  0  0  0  0  0  0  0  0  0
   -1.6742   -7.0926   23.5936 C   0  0  0  0  0  0  0  0  0  0  0  0
   -2.4307   -7.6424   24.5550 N   0  0  0  0  0  0  0  0  0  0  0  0
   -3.1920   -8.6732   24.1562 C   0  0  0  0  0  0  0  0  0  0  0  0
   -3.1432   -9.2292   22.8758 C   0  0  0  0  0  0  0  0  0  0  0  0
   -0.4744   -8.0906   19.5622 H   0  0  0  0  0  0  0  0  0  0  0  0
   -2.1891   -7.7496   19.5076 H   0  0  0  0  0  0  0  0  0  0  0  0
   -1.5429   -9.0206   18.5133 H   0  0  0  0  0  0  0  0  0  0  0  0
    0.1924   -8.9464   21.7292 H   0  0  0  0  0  0  0  0  0  0  0  0
    0.3787  -10.5097   21.2256 H   0  0  0  0  0  0  0  0  0  0  0  0
   -0.6585  -10.2741   22.5390 H   0  0  0  0  0  0  0  0  0  0  0  0
   -3.3987  -11.1086   20.1051 H   0  0  0  0  0  0  0  0  0  0  0  0
   -1.8664  -11.9175   20.4442 H   0  0  0  0  0  0  0  0  0  0  0  0
   -2.7626  -10.8875   17.7197 H   0  0  0  0  0  0  0  0  0  0  0  0
   -3.7299  -16.2918   15.4799 H   0  0  0  0  0  0  0  0  0  0  0  0
   -3.2601  -18.0823   19.3843 H   0  0  0  0  0  0  0  0  0  0  0  0
   -1.8252  -16.1066   20.2027 H   0  0  0  0  0  0  0  0  0  0  0  0
   -0.9322   -7.0590   21.5994 H   0  0  0  0  0  0  0  0  0  0  0  0
   -1.0245   -6.2906   23.9202 H   0  0  0  0  0  0  0  0  0  0  0  0
   -3.8342   -9.1086   24.9166 H   0  0  0  0  0  0  0  0  0  0  0  0
   -3.7222  -10.1040   22.6927 H   0  0  0  0  0  0  0  0  0  0  0  0
  1  2  1  0
  2  3  1  0
  2  4  1  0
  4  5  1  0
  5  6  1  0
  6  7  2  0
  7  8  1  0
  8  9  2  0
  9 10  1  0
 10 11  1  0
 10 12  2  0
 12 13  1  0
 13 14  2  0
 14 15  1  0
  2 16  1  0
 16 17  2  0
 17 18  1  0
 18 19  2  0
 19 20  1  0
 20 21  2  0
 15  6  1  0
 21 16  1  0
 14  8  1  0
  1 22  1  0
  1 23  1  0
  1 24  1  0
  3 25  1  0
  3 26  1  0
  3 27  1  0
  4 28  1  0
  4 29  1  0
  5 30  1  0
  9 31  1  0
 12 32  1  0
 13 33  1  0
 17 34  1  0
 18 35  1  0
 20 36  1  0
 21 37  1  0
M  END
>  <Energy>  (688) 
169.63841367097646

>  <compound_id>  (688) 
52789

>  <target_id>  (688) 
1

>  <reference_id>  (688) 
2

>  <inspiration_ids>  (688) 
[2, 59]

>  <energy_score>  (688) 
120.11830918225098

>  <distance_score>  (688) 
12.812942271950098

>  <path>  (688) 
/opt/xchem-fragalysis-2/maxwin/BulkDock/SCRATCH/511021/C52789-P2/C52789-P2.minimised.mol

>  <scratch_subdir>  (688) 
/opt/xchem-fragalysis-2/maxwin/BulkDock/SCRATCH/511021/C52789-P2

>  <fragmenstein_runtime>  (688) 
9.68684434890747

>  <fragmenstein_outcome>  (688) 
too moved

>  <fragmenstein_mode>  (688) 
expansion

>  <fragmenstein_error>  (688) 


$$$$
C52789-P59
     RDKit          3D

 37 39  0  0  0  0  0  0  0  0999 V2000
  -10.7472   -7.0089   15.3912 C   0  0  0  0  0  0  0  0  0  0  0  0
   -9.2307   -6.7374   15.1614 C   0  0  0  0  0  0  0  0  0  0  0  0
   -9.1979   -5.5801   14.1182 C   0  0  0  0  0  0  0  0  0  0  0  0
   -8.5945   -8.0366   14.3970 C   0  0  0  0  0  0  0  0  0  0  0  0
   -9.4533   -8.7631   13.3998 N   0  0  0  0  0  0  0  0  0  0  0  0
   -9.6847  -10.1010   13.3602 C   0  0  0  0  0  0  0  0  0  0  0  0
   -9.1810  -11.0948   14.0579 N   0  0  0  0  0  0  0  0  0  0  0  0
   -9.9910  -12.1735   13.7796 C   0  0  0  0  0  0  0  0  0  0  0  0
  -10.0740  -13.4477   14.3586 C   0  0  0  0  0  0  0  0  0  0  0  0
  -11.1391  -14.2601   13.9866 C   0  0  0  0  0  0  0  0  0  0  0  0
  -11.2922  -15.4439   14.5950 F   0  0  0  0  0  0  0  0  0  0  0  0
  -12.0785  -13.8362   13.0517 C   0  0  0  0  0  0  0  0  0  0  0  0
  -11.9530  -12.6130   12.3840 C   0  0  0  0  0  0  0  0  0  0  0  0
  -10.9113  -11.8093   12.8167 C   0  0  0  0  0  0  0  0  0  0  0  0
  -10.6693  -10.5054   12.4826 O   0  0  0  0  0  0  0  0  0  0  0  0
   -8.5737   -6.2026   16.5134 C   0  0  0  0  0  0  0  0  0  0  0  0
   -9.1448   -6.4721   17.7718 C   0  0  0  0  0  0  0  0  0  0  0  0
   -8.7146   -5.7819   18.9203 C   0  0  0  0  0  0  0  0  0  0  0  0
   -7.7318   -4.8599   18.9382 N   0  0  0  0  0  0  0  0  0  0  0  0
   -7.1503   -4.6312   17.7468 C   0  0  0  0  0  0  0  0  0  0  0  0
   -7.5217   -5.2638   16.5470 C   0  0  0  0  0  0  0  0  0  0  0  0
  -10.9215   -7.8976   16.0037 H   0  0  0  0  0  0  0  0  0  0  0  0
  -11.2351   -6.1592   15.8846 H   0  0  0  0  0  0  0  0  0  0  0  0
  -11.2809   -7.1666   14.4470 H   0  0  0  0  0  0  0  0  0  0  0  0
   -8.1769   -5.3553   13.7911 H   0  0  0  0  0  0  0  0  0  0  0  0
   -9.7668   -5.8373   13.2171 H   0  0  0  0  0  0  0  0  0  0  0  0
   -9.6310   -4.6591   14.5266 H   0  0  0  0  0  0  0  0  0  0  0  0
   -8.1812   -8.7364   15.1152 H   0  0  0  0  0  0  0  0  0  0  0  0
   -7.7365   -7.6704   13.8235 H   0  0  0  0  0  0  0  0  0  0  0  0
   -9.9792   -8.1842   12.7573 H   0  0  0  0  0  0  0  0  0  0  0  0
   -9.4019  -13.7686   15.1424 H   0  0  0  0  0  0  0  0  0  0  0  0
  -12.9294  -14.4661   12.8155 H   0  0  0  0  0  0  0  0  0  0  0  0
  -12.6756  -12.2812   11.6505 H   0  0  0  0  0  0  0  0  0  0  0  0
   -9.9600   -7.1783   17.8918 H   0  0  0  0  0  0  0  0  0  0  0  0
   -9.1790   -5.9786   19.8834 H   0  0  0  0  0  0  0  0  0  0  0  0
   -6.3548   -3.8909   17.7578 H   0  0  0  0  0  0  0  0  0  0  0  0
   -7.0097   -4.9621   15.6395 H   0  0  0  0  0  0  0  0  0  0  0  0
  1  2  1  0
  2  3  1  0
  2  4  1  0
  4  5  1  0
  5  6  1  0
  6  7  2  0
  7  8  1  0
  8  9  2  0
  9 10  1  0
 10 11  1  0
 10 12  2  0
 12 13  1  0
 13 14  2  0
 14 15  1  0
  2 16  1  0
 16 17  2  0
 17 18  1  0
 18 19  2  0
 19 20  1  0
 20 21  2  0
 15  6  1  0
 21 16  1  0
 14  8  1  0
  1 22  1  0
  1 23  1  0
  1 24  1  0
  3 25  1  0
  3 26  1  0
  3 27  1  0
  4 28  1  0
  4 29  1  0
  5 30  1  0
  9 31  1  0
 12 32  1  0
 13 33  1  0
 17 34  1  0
 18 35  1  0
 20 36  1  0
 21 37  1  0
M  END
>  <Energy>  (689) 
22.482156392741135

>  <compound_id>  (689) 
52789

>  <target_id>  (689) 
1

>  <reference_id>  (689) 
59

>  <inspiration_ids>  (689) 
[2, 59]

>  <energy_score>  (689) 
-27.037948095984433

>  <distance_score>  (689) 
13.549628012465883

>  <path>  (689) 
/opt/xchem-fragalysis-2/maxwin/BulkDock/SCRATCH/511021/C52789-P59/C52789-P59.minimised.mol

>  <scratch_subdir>  (689) 
/opt/xchem-fragalysis-2/maxwin/BulkDock/SCRATCH/511021/C52789-P59

>  <fragmenstein_runtime>  (689) 
11.887248992919922

>  <fragmenstein_outcome>  (689) 
too moved

>  <fragmenstein_mode>  (689) 
expansion

>  <fragmenstein_error>  (689) 


$$$$
C52791-P2
     RDKit          3D

 40 42  0  0  0  0  0  0  0  0999 V2000
   -5.9566  -16.4907   13.7340 C   0  0  0  0  0  0  0  0  0  0  0  0
   -4.9905  -16.5948   14.9641 C   0  0  0  0  0  0  0  0  0  0  0  0
   -3.6958  -17.2284   15.0849 C   0  0  0  0  0  0  0  0  0  0  0  0
   -3.1960  -17.6251   16.3101 C   0  0  0  0  0  0  0  0  0  0  0  0
   -3.8974  -17.2963   17.4469 C   0  0  0  0  0  0  0  0  0  0  0  0
   -4.9240  -16.3716   17.2204 C   0  0  0  0  0  0  0  0  0  0  0  0
   -4.9322  -15.0423   17.4989 N   0  0  0  0  0  0  0  0  0  0  0  0
   -5.5619  -13.8038   17.1265 C   0  0  0  0  0  0  0  0  0  0  0  0
   -5.4103  -12.2300   17.8522 N   0  0  0  0  0  0  0  0  0  0  0  0
   -3.7998  -11.7922   18.7362 C   0  0  0  0  0  0  0  0  0  0  0  0
   -3.0757  -10.7805   20.0379 C   0  0  0  0  0  0  0  0  0  0  0  0
   -2.6994   -9.4879   19.2793 C   0  0  0  0  0  0  0  0  0  0  0  0
   -3.8945  -11.1023   21.3502 C   0  0  0  0  0  0  0  0  0  0  0  0
   -1.8006  -10.8316   21.0284 C   0  0  0  0  0  0  0  0  0  0  0  0
   -1.4954   -9.6641   21.8247 C   0  0  0  0  0  0  0  0  0  0  0  0
   -0.5677   -9.7005   22.8572 C   0  0  0  0  0  0  0  0  0  0  0  0
    0.0857  -10.8205   23.1814 N   0  0  0  0  0  0  0  0  0  0  0  0
   -0.2073  -11.9288   22.4518 C   0  0  0  0  0  0  0  0  0  0  0  0
   -1.1160  -11.9922   21.3856 C   0  0  0  0  0  0  0  0  0  0  0  0
   -6.7099  -14.8410   16.4395 O   0  0  0  0  0  0  0  0  0  0  0  0
   -5.7092  -16.1775   16.1652 C   0  0  0  0  0  0  0  0  0  0  0  0
   -6.3134  -17.3995   13.1924 H   0  0  0  0  0  0  0  0  0  0  0  0
   -5.5775  -15.7467   13.0121 H   0  0  0  0  0  0  0  0  0  0  0  0
   -6.9292  -16.1637   14.1729 H   0  0  0  0  0  0  0  0  0  0  0  0
   -3.1156  -17.5413   14.2279 H   0  0  0  0  0  0  0  0  0  0  0  0
   -2.2508  -18.1581   16.3673 H   0  0  0  0  0  0  0  0  0  0  0  0
   -3.4145  -17.3903   18.4139 H   0  0  0  0  0  0  0  0  0  0  0  0
   -6.1727  -12.2586   18.5316 H   0  0  0  0  0  0  0  0  0  0  0  0
   -2.9620  -12.1711   18.1431 H   0  0  0  0  0  0  0  0  0  0  0  0
   -4.1356  -12.3748   19.5525 H   0  0  0  0  0  0  0  0  0  0  0  0
   -3.1389   -9.3887   18.2846 H   0  0  0  0  0  0  0  0  0  0  0  0
   -2.8440   -8.5825   19.8597 H   0  0  0  0  0  0  0  0  0  0  0  0
   -1.6592   -9.4599   18.9878 H   0  0  0  0  0  0  0  0  0  0  0  0
   -3.5180  -11.9702   21.9156 H   0  0  0  0  0  0  0  0  0  0  0  0
   -3.9393  -10.3259   22.1263 H   0  0  0  0  0  0  0  0  0  0  0  0
   -4.8759  -11.4399   21.0962 H   0  0  0  0  0  0  0  0  0  0  0  0
   -2.0303   -8.7289   21.6941 H   0  0  0  0  0  0  0  0  0  0  0  0
   -0.3408   -8.8282   23.4622 H   0  0  0  0  0  0  0  0  0  0  0  0
    0.3347  -12.8231   22.7542 H   0  0  0  0  0  0  0  0  0  0  0  0
   -1.2967  -12.9358   20.8815 H   0  0  0  0  0  0  0  0  0  0  0  0
  1  2  1  0
  2  3  2  0
  3  4  1  0
  4  5  2  0
  5  6  1  0
  6  7  1  0
  7  8  2  0
  8  9  1  0
  9 10  1  0
 10 11  1  0
 11 12  1  0
 11 13  1  0
 11 14  1  0
 14 15  2  0
 15 16  1  0
 16 17  2  0
 17 18  1  0
 18 19  2  0
  8 20  1  0
 20 21  1  0
 21  2  1  0
 21  6  2  0
 19 14  1  0
  1 22  1  0
  1 23  1  0
  1 24  1  0
  3 25  1  0
  4 26  1  0
  5 27  1  0
  9 28  1  0
 10 29  1  0
 10 30  1  0
 12 31  1  0
 12 32  1  0
 12 33  1  0
 13 34  1  0
 13 35  1  0
 13 36  1  0
 15 37  1  0
 16 38  1  0
 18 39  1  0
 19 40  1  0
M  END
>  <Energy>  (690) 
461.1724461989611

>  <compound_id>  (690) 
52791

>  <target_id>  (690) 
1

>  <reference_id>  (690) 
2

>  <inspiration_ids>  (690) 
[2, 59]

>  <energy_score>  (690) 
402.78674385231716

>  <distance_score>  (690) 
12.67312482410915

>  <path>  (690) 
/opt/xchem-fragalysis-2/maxwin/BulkDock/SCRATCH/511021/C52791-P2/C52791-P2.minimised.mol

>  <scratch_subdir>  (690) 
/opt/xchem-fragalysis-2/maxwin/BulkDock/SCRATCH/511021/C52791-P2

>  <fragmenstein_runtime>  (690) 
9.997917652130127

>  <fragmenstein_outcome>  (690) 
too moved

>  <fragmenstein_mode>  (690) 
expansion

>  <fragmenstein_error>  (690) 


$$$$
C52791-P59
     RDKit          3D

 40 42  0  0  0  0  0  0  0  0999 V2000
  -15.2521  -15.0725   15.0112 C   0  0  0  0  0  0  0  0  0  0  0  0
  -14.0158  -14.2854   14.7269 C   0  0  0  0  0  0  0  0  0  0  0  0
  -13.4967  -14.1345   13.4242 C   0  0  0  0  0  0  0  0  0  0  0  0
  -12.3306  -13.4077   13.1565 C   0  0  0  0  0  0  0  0  0  0  0  0
  -11.6534  -12.7433   14.1744 C   0  0  0  0  0  0  0  0  0  0  0  0
  -12.1956  -12.8100   15.4626 C   0  0  0  0  0  0  0  0  0  0  0  0
  -11.8160  -12.1791   16.6232 N   0  0  0  0  0  0  0  0  0  0  0  0
  -12.6869  -12.5509   17.5265 C   0  0  0  0  0  0  0  0  0  0  0  0
  -12.8853  -12.1118   18.7996 N   0  0  0  0  0  0  0  0  0  0  0  0
  -11.9578  -11.2114   19.5767 C   0  0  0  0  0  0  0  0  0  0  0  0
  -12.6460  -10.2316   20.7255 C   0  0  0  0  0  0  0  0  0  0  0  0
  -13.3325  -11.1936   21.7364 C   0  0  0  0  0  0  0  0  0  0  0  0
  -13.8025   -9.4468   20.0532 C   0  0  0  0  0  0  0  0  0  0  0  0
  -11.7428   -9.1787   21.5209 C   0  0  0  0  0  0  0  0  0  0  0  0
  -11.3143   -9.3887   22.8508 C   0  0  0  0  0  0  0  0  0  0  0  0
  -10.5088   -8.4389   23.5064 C   0  0  0  0  0  0  0  0  0  0  0  0
  -10.0990   -7.2791   22.9531 N   0  0  0  0  0  0  0  0  0  0  0  0
  -10.5559   -7.0439   21.7065 C   0  0  0  0  0  0  0  0  0  0  0  0
  -11.3360   -7.9475   20.9648 C   0  0  0  0  0  0  0  0  0  0  0  0
  -13.5919  -13.4797   17.0477 O   0  0  0  0  0  0  0  0  0  0  0  0
  -13.3063  -13.5918   15.7063 C   0  0  0  0  0  0  0  0  0  0  0  0
  -15.8440  -14.5913   15.7967 H   0  0  0  0  0  0  0  0  0  0  0  0
  -15.8859  -15.1477   14.1218 H   0  0  0  0  0  0  0  0  0  0  0  0
  -14.9899  -16.0810   15.3432 H   0  0  0  0  0  0  0  0  0  0  0  0
  -14.0138  -14.5823   12.5758 H   0  0  0  0  0  0  0  0  0  0  0  0
  -11.9673  -13.3237   12.1368 H   0  0  0  0  0  0  0  0  0  0  0  0
  -10.7700  -12.1488   13.9751 H   0  0  0  0  0  0  0  0  0  0  0  0
  -13.4938  -12.6952   19.3609 H   0  0  0  0  0  0  0  0  0  0  0  0
  -11.2418  -11.8680   20.0836 H   0  0  0  0  0  0  0  0  0  0  0  0
  -11.3841  -10.5869   18.8964 H   0  0  0  0  0  0  0  0  0  0  0  0
  -14.1012  -11.8088   21.2563 H   0  0  0  0  0  0  0  0  0  0  0  0
  -13.8321  -10.6435   22.5429 H   0  0  0  0  0  0  0  0  0  0  0  0
  -12.6074  -11.8805   22.1871 H   0  0  0  0  0  0  0  0  0  0  0  0
  -14.5428  -10.1198   19.6063 H   0  0  0  0  0  0  0  0  0  0  0  0
  -13.4475   -8.7881   19.2574 H   0  0  0  0  0  0  0  0  0  0  0  0
  -14.3327   -8.8220   20.7825 H   0  0  0  0  0  0  0  0  0  0  0  0
  -11.5665  -10.2905   23.4003 H   0  0  0  0  0  0  0  0  0  0  0  0
  -10.1673   -8.6150   24.5234 H   0  0  0  0  0  0  0  0  0  0  0  0
  -10.2622   -6.0891   21.2766 H   0  0  0  0  0  0  0  0  0  0  0  0
  -11.6232   -7.6685   19.9546 H   0  0  0  0  0  0  0  0  0  0  0  0
  1  2  1  0
  2  3  2  0
  3  4  1  0
  4  5  2  0
  5  6  1  0
  6  7  1  0
  7  8  2  0
  8  9  1  0
  9 10  1  0
 10 11  1  0
 11 12  1  0
 11 13  1  0
 11 14  1  0
 14 15  2  0
 15 16  1  0
 16 17  2  0
 17 18  1  0
 18 19  2  0
  8 20  1  0
 20 21  1  0
 21  2  1  0
 21  6  2  0
 19 14  1  0
  1 22  1  0
  1 23  1  0
  1 24  1  0
  3 25  1  0
  4 26  1  0
  5 27  1  0
  9 28  1  0
 10 29  1  0
 10 30  1  0
 12 31  1  0
 12 32  1  0
 12 33  1  0
 13 34  1  0
 13 35  1  0
 13 36  1  0
 15 37  1  0
 16 38  1  0
 18 39  1  0
 19 40  1  0
M  END
>  <Energy>  (691) 
30.610999638670982

>  <compound_id>  (691) 
52791

>  <target_id>  (691) 
1

>  <reference_id>  (691) 
59

>  <inspiration_ids>  (691) 
[2, 59]

>  <energy_score>  (691) 
-27.774702707975052

>  <distance_score>  (691) 
13.879492034026947

>  <path>  (691) 
/opt/xchem-fragalysis-2/maxwin/BulkDock/SCRATCH/511021/C52791-P59/C52791-P59.minimised.mol

>  <scratch_subdir>  (691) 
/opt/xchem-fragalysis-2/maxwin/BulkDock/SCRATCH/511021/C52791-P59

>  <fragmenstein_runtime>  (691) 
10.809470891952515

>  <fragmenstein_outcome>  (691) 
too moved

>  <fragmenstein_mode>  (691) 
expansion

>  <fragmenstein_error>  (691) 


$$$$
C52794-P2
     RDKit          3D

 41 44  0  0  0  0  0  0  0  0999 V2000
   -7.6635  -20.4260   10.0864 C   0  0  0  0  0  0  0  0  0  0  0  0
   -7.7712  -21.2957   11.0840 C   0  0  0  0  0  0  0  0  0  0  0  0
   -7.1938  -20.7177   12.2388 C   0  0  0  0  0  0  0  0  0  0  0  0
   -6.7495  -19.1187   12.8201 C   0  0  0  0  0  0  0  0  0  0  0  0
   -7.7514  -17.6225   13.2133 O   0  0  0  0  0  0  0  0  0  0  0  0
   -6.6966  -16.3865   13.9166 C   0  0  0  0  0  0  0  0  0  0  0  0
   -7.3042  -14.5188   14.4507 C   0  0  0  0  0  0  0  0  0  0  0  0
   -6.7927  -14.1660   16.4350 C   0  0  0  0  0  0  0  0  0  0  0  0
   -5.5646  -12.7160   17.3722 C   0  0  0  0  0  0  0  0  0  0  0  0
   -5.5707  -10.9394   16.3199 C   0  0  0  0  0  0  0  0  0  0  0  0
   -4.0763  -10.1966   17.0262 N   0  0  0  0  0  0  0  0  0  0  0  0
   -3.1600  -10.7912   18.1314 C   0  0  0  0  0  0  0  0  0  0  0  0
   -2.5800   -9.8961   19.2494 C   0  0  0  0  0  0  0  0  0  0  0  0
   -2.3947  -10.1118   20.6050 C   0  0  0  0  0  0  0  0  0  0  0  0
   -1.8650   -9.0220   21.2473 N   0  0  0  0  0  0  0  0  0  0  0  0
   -1.6395   -8.2101   20.2476 C   0  0  0  0  0  0  0  0  0  0  0  0
   -2.0722   -8.6473   19.0195 O   0  0  0  0  0  0  0  0  0  0  0  0
   -5.7219  -10.9942   14.1488 C   0  0  0  0  0  0  0  0  0  0  0  0
   -6.8547  -12.6749   13.4392 C   0  0  0  0  0  0  0  0  0  0  0  0
   -5.9717  -16.8682   12.7970 N   0  0  0  0  0  0  0  0  0  0  0  0
   -6.3564  -18.3267   11.9211 C   0  0  0  0  0  0  0  0  0  0  0  0
   -7.0250  -19.2134   10.5886 C   0  0  0  0  0  0  0  0  0  0  0  0
   -7.9367  -20.5929    9.0622 H   0  0  0  0  0  0  0  0  0  0  0  0
   -8.0317  -22.3352   10.9825 H   0  0  0  0  0  0  0  0  0  0  0  0
   -6.9201  -21.5811   12.8633 H   0  0  0  0  0  0  0  0  0  0  0  0
   -8.3913  -14.5583   14.5782 H   0  0  0  0  0  0  0  0  0  0  0  0
   -7.6546  -13.7209   16.9376 H   0  0  0  0  0  0  0  0  0  0  0  0
   -6.6274  -15.1980   16.7283 H   0  0  0  0  0  0  0  0  0  0  0  0
   -4.9230  -13.4323   16.9493 H   0  0  0  0  0  0  0  0  0  0  0  0
   -5.9703  -12.4679   18.3544 H   0  0  0  0  0  0  0  0  0  0  0  0
   -6.3927  -10.3252   16.6969 H   0  0  0  0  0  0  0  0  0  0  0  0
   -3.5606   -9.5863   16.3992 H   0  0  0  0  0  0  0  0  0  0  0  0
   -2.3212  -11.3359   17.7129 H   0  0  0  0  0  0  0  0  0  0  0  0
   -3.7290  -11.5539   18.6641 H   0  0  0  0  0  0  0  0  0  0  0  0
   -2.6542  -11.0021   21.1341 H   0  0  0  0  0  0  0  0  0  0  0  0
   -1.1581   -7.2465   20.2792 H   0  0  0  0  0  0  0  0  0  0  0  0
   -4.8875  -10.8048   13.5415 H   0  0  0  0  0  0  0  0  0  0  0  0
   -6.4262  -10.1804   13.9007 H   0  0  0  0  0  0  0  0  0  0  0  0
   -7.8789  -12.2596   13.3161 H   0  0  0  0  0  0  0  0  0  0  0  0
   -6.4274  -12.7978   12.4379 H   0  0  0  0  0  0  0  0  0  0  0  0
   -8.0616  -19.3247   11.1473 H   0  0  0  0  0  0  0  0  0  0  0  0
  1  2  2  0
  2  3  1  0
  3  4  2  0
  4  5  1  0
  5  6  1  0
  6  7  1  0
  7  8  1  0
  8  9  1  0
  9 10  1  0
 10 11  1  0
 11 12  1  0
 12 13  1  0
 13 14  2  0
 14 15  1  0
 15 16  2  0
 16 17  1  0
 10 18  1  0
 18 19  1  0
  6 20  2  0
 20 21  1  0
 21 22  2  0
 22  1  1  0
 21  4  1  0
 19  7  1  0
 17 13  1  0
  1 23  1  0
  2 24  1  0
  3 25  1  0
  7 26  1  0
  8 27  1  0
  8 28  1  0
  9 29  1  0
  9 30  1  0
 10 31  1  0
 11 32  1  0
 12 33  1  0
 12 34  1  0
 14 35  1  0
 16 36  1  0
 18 37  1  0
 18 38  1  0
 19 39  1  0
 19 40  1  0
 22 41  1  0
M  END
>  <Energy>  (692) 
1155.2381177217883

>  <compound_id>  (692) 
52794

>  <target_id>  (692) 
1

>  <reference_id>  (692) 
2

>  <inspiration_ids>  (692) 
[2, 59]

>  <energy_score>  (692) 
1080.977797580072

>  <distance_score>  (692) 
10.107730745967743

>  <path>  (692) 
/opt/xchem-fragalysis-2/maxwin/BulkDock/SCRATCH/511021/C52794-P2/C52794-P2.minimised.mol

>  <scratch_subdir>  (692) 
/opt/xchem-fragalysis-2/maxwin/BulkDock/SCRATCH/511021/C52794-P2

>  <fragmenstein_runtime>  (692) 
11.832237243652344

>  <fragmenstein_outcome>  (692) 
too moved

>  <fragmenstein_mode>  (692) 
expansion

>  <fragmenstein_error>  (692) 


$$$$
C52794-P59
     RDKit          3D

 41 44  0  0  0  0  0  0  0  0999 V2000
   -8.7083  -19.3085   12.0751 C   0  0  0  0  0  0  0  0  0  0  0  0
   -7.2958  -19.6501   11.9651 C   0  0  0  0  0  0  0  0  0  0  0  0
   -6.3118  -18.6989   12.5380 C   0  0  0  0  0  0  0  0  0  0  0  0
   -6.6790  -17.4399   13.4428 C   0  0  0  0  0  0  0  0  0  0  0  0
   -5.9948  -16.4402   14.3278 O   0  0  0  0  0  0  0  0  0  0  0  0
   -7.2110  -15.7382   15.4072 C   0  0  0  0  0  0  0  0  0  0  0  0
   -7.0682  -14.3755   16.7120 C   0  0  0  0  0  0  0  0  0  0  0  0
   -5.8035  -13.7521   17.2807 C   0  0  0  0  0  0  0  0  0  0  0  0
   -5.7845  -12.6380   18.6168 C   0  0  0  0  0  0  0  0  0  0  0  0
   -5.1312  -11.4861   18.1037 C   0  0  0  0  0  0  0  0  0  0  0  0
   -3.9780  -11.1727   19.2162 N   0  0  0  0  0  0  0  0  0  0  0  0
   -3.4609   -9.8405   20.2862 C   0  0  0  0  0  0  0  0  0  0  0  0
   -3.6705   -8.9345   22.0683 C   0  0  0  0  0  0  0  0  0  0  0  0
   -3.3566   -9.0437   23.4525 C   0  0  0  0  0  0  0  0  0  0  0  0
   -3.2564   -7.8202   24.0915 N   0  0  0  0  0  0  0  0  0  0  0  0
   -3.4626   -6.9681   23.1239 C   0  0  0  0  0  0  0  0  0  0  0  0
   -3.6976   -7.5223   21.9189 O   0  0  0  0  0  0  0  0  0  0  0  0
   -6.8766  -11.3228   17.7613 C   0  0  0  0  0  0  0  0  0  0  0  0
   -7.9059  -12.8267   17.4396 C   0  0  0  0  0  0  0  0  0  0  0  0
   -8.1439  -15.9082   14.5139 N   0  0  0  0  0  0  0  0  0  0  0  0
   -8.0639  -17.0683   13.6316 C   0  0  0  0  0  0  0  0  0  0  0  0
   -9.0713  -17.8351   12.7409 C   0  0  0  0  0  0  0  0  0  0  0  0
   -9.4508  -20.0022   11.7568 H   0  0  0  0  0  0  0  0  0  0  0  0
   -6.9429  -20.5808   11.5592 H   0  0  0  0  0  0  0  0  0  0  0  0
   -5.3041  -19.1207   12.5802 H   0  0  0  0  0  0  0  0  0  0  0  0
   -7.3708  -14.0748   15.7928 H   0  0  0  0  0  0  0  0  0  0  0  0
   -5.3612  -13.1329   16.6803 H   0  0  0  0  0  0  0  0  0  0  0  0
   -5.3367  -14.7434   17.4733 H   0  0  0  0  0  0  0  0  0  0  0  0
   -6.6927  -12.6082   19.2497 H   0  0  0  0  0  0  0  0  0  0  0  0
   -5.0907  -12.7617   19.4196 H   0  0  0  0  0  0  0  0  0  0  0  0
   -4.7477  -11.0397   17.2233 H   0  0  0  0  0  0  0  0  0  0  0  0
   -3.0988  -11.6570   19.0241 H   0  0  0  0  0  0  0  0  0  0  0  0
   -4.1581  -10.5270   20.8369 H   0  0  0  0  0  0  0  0  0  0  0  0
   -3.4087   -9.0314   19.5715 H   0  0  0  0  0  0  0  0  0  0  0  0
   -3.2007   -9.9278   24.0480 H   0  0  0  0  0  0  0  0  0  0  0  0
   -3.4543   -5.8890   23.1453 H   0  0  0  0  0  0  0  0  0  0  0  0
   -6.8310  -10.5934   16.9525 H   0  0  0  0  0  0  0  0  0  0  0  0
   -7.5217  -10.9608   18.5611 H   0  0  0  0  0  0  0  0  0  0  0  0
   -8.4131  -12.9943   18.3963 H   0  0  0  0  0  0  0  0  0  0  0  0
   -8.4855  -12.3345   16.6822 H   0  0  0  0  0  0  0  0  0  0  0  0
  -10.0914  -17.5376   12.9742 H   0  0  0  0  0  0  0  0  0  0  0  0
  1  2  2  0
  2  3  1  0
  3  4  2  0
  4  5  1  0
  5  6  1  0
  6  7  1  0
  7  8  1  0
  8  9  1  0
  9 10  1  0
 10 11  1  0
 11 12  1  0
 12 13  1  0
 13 14  2  0
 14 15  1  0
 15 16  2  0
 16 17  1  0
 10 18  1  0
 18 19  1  0
  6 20  2  0
 20 21  1  0
 21 22  2  0
 22  1  1  0
 21  4  1  0
 19  7  1  0
 17 13  1  0
  1 23  1  0
  2 24  1  0
  3 25  1  0
  7 26  1  0
  8 27  1  0
  8 28  1  0
  9 29  1  0
  9 30  1  0
 10 31  1  0
 11 32  1  0
 12 33  1  0
 12 34  1  0
 14 35  1  0
 16 36  1  0
 18 37  1  0
 18 38  1  0
 19 39  1  0
 19 40  1  0
 22 41  1  0
M  END
>  <Energy>  (693) 
739.15595264555702

>  <compound_id>  (693) 
52794

>  <target_id>  (693) 
1

>  <reference_id>  (693) 
59

>  <inspiration_ids>  (693) 
[2, 59]

>  <energy_score>  (693) 
664.8956325038422

>  <distance_score>  (693) 
9.654209287583859

>  <path>  (693) 
/opt/xchem-fragalysis-2/maxwin/BulkDock/SCRATCH/511021/C52794-P59/C52794-P59.minimised.mol

>  <scratch_subdir>  (693) 
/opt/xchem-fragalysis-2/maxwin/BulkDock/SCRATCH/511021/C52794-P59

>  <fragmenstein_runtime>  (693) 
15.362001895904541

>  <fragmenstein_outcome>  (693) 
too moved

>  <fragmenstein_mode>  (693) 
expansion

>  <fragmenstein_error>  (693) 


$$$$
C52796-P2
     RDKit          3D

 44 47  0  0  0  0  0  0  0  0999 V2000
   -7.7263  -19.9668   10.9523 C   0  0  0  0  0  0  0  0  0  0  0  0
   -7.1575  -20.1674   12.1127 C   0  0  0  0  0  0  0  0  0  0  0  0
   -6.3323  -18.9927   12.8465 C   0  0  0  0  0  0  0  0  0  0  0  0
   -6.3854  -17.6067   12.8716 C   0  0  0  0  0  0  0  0  0  0  0  0
   -5.8859  -16.3422   13.5671 O   0  0  0  0  0  0  0  0  0  0  0  0
   -5.6905  -14.8798   12.5955 C   0  0  0  0  0  0  0  0  0  0  0  0
   -6.4363  -12.9583   12.8549 C   0  0  0  0  0  0  0  0  0  0  0  0
   -8.0214  -12.4063   13.3013 C   0  0  0  0  0  0  0  0  0  0  0  0
   -8.2147  -10.9729   14.4090 C   0  0  0  0  0  0  0  0  0  0  0  0
   -6.7618  -10.0897   15.4869 C   0  0  0  0  0  0  0  0  0  0  0  0
   -5.5467  -10.5203   16.6991 N   0  0  0  0  0  0  0  0  0  0  0  0
   -3.9190   -9.8593   17.0507 C   0  0  0  0  0  0  0  0  0  0  0  0
   -2.9417  -10.2268   18.2805 C   0  0  0  0  0  0  0  0  0  0  0  0
   -2.6732  -11.4652   18.7713 C   0  0  0  0  0  0  0  0  0  0  0  0
   -2.2477  -11.6002   20.1045 C   0  0  0  0  0  0  0  0  0  0  0  0
   -2.0027  -10.6271   20.9934 N   0  0  0  0  0  0  0  0  0  0  0  0
   -2.0492   -9.4267   20.4454 C   0  0  0  0  0  0  0  0  0  0  0  0
   -2.4396   -9.2078   19.1106 C   0  0  0  0  0  0  0  0  0  0  0  0
   -6.1747  -10.0785   13.7813 C   0  0  0  0  0  0  0  0  0  0  0  0
   -5.6253  -11.3721   13.1506 C   0  0  0  0  0  0  0  0  0  0  0  0
   -6.0234  -15.6855   11.4161 N   0  0  0  0  0  0  0  0  0  0  0  0
   -6.4587  -17.4101   11.5804 C   0  0  0  0  0  0  0  0  0  0  0  0
   -6.8674  -18.9448   10.6376 C   0  0  0  0  0  0  0  0  0  0  0  0
   -8.0124  -20.7704   10.2913 H   0  0  0  0  0  0  0  0  0  0  0  0
   -6.9265  -21.2222   12.3163 H   0  0  0  0  0  0  0  0  0  0  0  0
   -5.2994  -19.3795   12.7389 H   0  0  0  0  0  0  0  0  0  0  0  0
   -6.5476  -12.8234   11.8342 H   0  0  0  0  0  0  0  0  0  0  0  0
   -8.6381  -13.1959   13.7464 H   0  0  0  0  0  0  0  0  0  0  0  0
   -8.5871  -12.1731   12.3955 H   0  0  0  0  0  0  0  0  0  0  0  0
   -8.8135  -10.1971   13.9135 H   0  0  0  0  0  0  0  0  0  0  0  0
   -8.8509  -11.5660   15.0344 H   0  0  0  0  0  0  0  0  0  0  0  0
   -7.1100   -9.2514   16.0604 H   0  0  0  0  0  0  0  0  0  0  0  0
   -5.9358  -11.0660   17.4569 H   0  0  0  0  0  0  0  0  0  0  0  0
   -4.0243   -8.8065   17.2913 H   0  0  0  0  0  0  0  0  0  0  0  0
   -3.3781   -9.8172   16.1381 H   0  0  0  0  0  0  0  0  0  0  0  0
   -2.7682  -12.3263   18.1391 H   0  0  0  0  0  0  0  0  0  0  0  0
   -2.0515  -12.5802   20.5063 H   0  0  0  0  0  0  0  0  0  0  0  0
   -1.7713   -8.6496   21.1378 H   0  0  0  0  0  0  0  0  0  0  0  0
   -2.4465   -8.2042   18.7437 H   0  0  0  0  0  0  0  0  0  0  0  0
   -5.4007   -9.3809   13.4240 H   0  0  0  0  0  0  0  0  0  0  0  0
   -7.0351   -9.5152   13.3888 H   0  0  0  0  0  0  0  0  0  0  0  0
   -4.8417  -11.2204   13.8268 H   0  0  0  0  0  0  0  0  0  0  0  0
   -4.8567  -11.5175   12.4020 H   0  0  0  0  0  0  0  0  0  0  0  0
   -6.0471  -19.6673   10.7242 H   0  0  0  0  0  0  0  0  0  0  0  0
  1  2  2  0
  2  3  1  0
  3  4  2  0
  4  5  1  0
  5  6  1  0
  6  7  1  0
  7  8  1  0
  8  9  1  0
  9 10  1  0
 10 11  1  0
 11 12  1  0
 12 13  1  0
 13 14  2  0
 14 15  1  0
 15 16  2  0
 16 17  1  0
 17 18  2  0
 10 19  1  0
 19 20  1  0
  6 21  2  0
 21 22  1  0
 22 23  2  0
 23  1  1  0
 22  4  1  0
 20  7  1  0
 18 13  1  0
  1 24  1  0
  2 25  1  0
  3 26  1  0
  7 27  1  0
  8 28  1  0
  8 29  1  0
  9 30  1  0
  9 31  1  0
 10 32  1  0
 11 33  1  0
 12 34  1  0
 12 35  1  0
 14 36  1  0
 15 37  1  0
 17 38  1  0
 18 39  1  0
 19 40  1  0
 19 41  1  0
 20 42  1  0
 20 43  1  0
 23 44  1  0
M  END
>  <Energy>  (694) 
884.98830152443031

>  <compound_id>  (694) 
52796

>  <target_id>  (694) 
1

>  <reference_id>  (694) 
2

>  <inspiration_ids>  (694) 
[2, 59]

>  <energy_score>  (694) 
808.5001332042726

>  <distance_score>  (694) 
11.263563366760847

>  <path>  (694) 
/opt/xchem-fragalysis-2/maxwin/BulkDock/SCRATCH/511021/C52796-P2/C52796-P2.minimised.mol

>  <scratch_subdir>  (694) 
/opt/xchem-fragalysis-2/maxwin/BulkDock/SCRATCH/511021/C52796-P2

>  <fragmenstein_runtime>  (694) 
16.016793966293335

>  <fragmenstein_outcome>  (694) 
too moved

>  <fragmenstein_mode>  (694) 
expansion

>  <fragmenstein_error>  (694) 


$$$$
C52796-P59
     RDKit          3D

 44 47  0  0  0  0  0  0  0  0999 V2000
   -3.7713  -21.3488   17.8497 C   0  0  0  0  0  0  0  0  0  0  0  0
   -4.8764  -20.9959   18.6322 C   0  0  0  0  0  0  0  0  0  0  0  0
   -5.0156  -19.7015   19.1603 C   0  0  0  0  0  0  0  0  0  0  0  0
   -3.9625  -18.8273   18.9121 C   0  0  0  0  0  0  0  0  0  0  0  0
   -3.8121  -17.5315   19.3448 O   0  0  0  0  0  0  0  0  0  0  0  0
   -2.5598  -17.1565   18.9178 C   0  0  0  0  0  0  0  0  0  0  0  0
   -1.9213  -15.6358   19.2517 C   0  0  0  0  0  0  0  0  0  0  0  0
   -1.9969  -14.1605   18.0804 C   0  0  0  0  0  0  0  0  0  0  0  0
   -2.1130  -12.4190   18.5639 C   0  0  0  0  0  0  0  0  0  0  0  0
   -0.8987  -11.9204   19.9163 C   0  0  0  0  0  0  0  0  0  0  0  0
    0.1507  -10.7619   21.0868 N   0  0  0  0  0  0  0  0  0  0  0  0
    0.8300  -10.9080   22.4626 C   0  0  0  0  0  0  0  0  0  0  0  0
    1.2392   -9.5904   23.1673 C   0  0  0  0  0  0  0  0  0  0  0  0
    1.2669   -9.5323   24.5691 C   0  0  0  0  0  0  0  0  0  0  0  0
    1.6886   -8.3654   25.2012 C   0  0  0  0  0  0  0  0  0  0  0  0
    2.0322   -7.2298   24.5565 N   0  0  0  0  0  0  0  0  0  0  0  0
    2.0171   -7.3008   23.2093 C   0  0  0  0  0  0  0  0  0  0  0  0
    1.6691   -8.4442   22.4843 C   0  0  0  0  0  0  0  0  0  0  0  0
   -1.8094  -13.3462   20.9743 C   0  0  0  0  0  0  0  0  0  0  0  0
   -2.0726  -15.2487   20.7505 C   0  0  0  0  0  0  0  0  0  0  0  0
   -1.9213  -18.1467   18.2934 N   0  0  0  0  0  0  0  0  0  0  0  0
   -2.8272  -19.1699   18.2057 C   0  0  0  0  0  0  0  0  0  0  0  0
   -2.7364  -20.4352   17.6121 C   0  0  0  0  0  0  0  0  0  0  0  0
   -3.7000  -22.3517   17.4305 H   0  0  0  0  0  0  0  0  0  0  0  0
   -5.6490  -21.7372   18.8202 H   0  0  0  0  0  0  0  0  0  0  0  0
   -5.8726  -19.4036   19.7509 H   0  0  0  0  0  0  0  0  0  0  0  0
   -0.8658  -15.9667   19.1831 H   0  0  0  0  0  0  0  0  0  0  0  0
   -2.7593  -14.2627   17.3061 H   0  0  0  0  0  0  0  0  0  0  0  0
   -1.0535  -14.1778   17.5133 H   0  0  0  0  0  0  0  0  0  0  0  0
   -1.8100  -11.8417   17.7167 H   0  0  0  0  0  0  0  0  0  0  0  0
   -3.1459  -12.1577   18.8089 H   0  0  0  0  0  0  0  0  0  0  0  0
   -1.2104  -10.9550   19.4078 H   0  0  0  0  0  0  0  0  0  0  0  0
    0.7225  -10.1750   20.4782 H   0  0  0  0  0  0  0  0  0  0  0  0
    1.7552  -11.4880   22.3915 H   0  0  0  0  0  0  0  0  0  0  0  0
    0.1620  -11.4557   23.1367 H   0  0  0  0  0  0  0  0  0  0  0  0
    0.9939  -10.3933   25.1712 H   0  0  0  0  0  0  0  0  0  0  0  0
    1.7725   -8.3308   26.2833 H   0  0  0  0  0  0  0  0  0  0  0  0
    2.3245   -6.3944   22.6941 H   0  0  0  0  0  0  0  0  0  0  0  0
    1.7179   -8.4174   21.4004 H   0  0  0  0  0  0  0  0  0  0  0  0
   -1.3986  -13.2961   21.9877 H   0  0  0  0  0  0  0  0  0  0  0  0
   -2.7929  -13.0535   20.7301 H   0  0  0  0  0  0  0  0  0  0  0  0
   -2.8728  -15.8893   21.1232 H   0  0  0  0  0  0  0  0  0  0  0  0
   -1.2838  -15.7154   21.3875 H   0  0  0  0  0  0  0  0  0  0  0  0
   -1.8608  -20.7163   17.0371 H   0  0  0  0  0  0  0  0  0  0  0  0
  1  2  2  0
  2  3  1  0
  3  4  2  0
  4  5  1  0
  5  6  1  0
  6  7  1  0
  7  8  1  0
  8  9  1  0
  9 10  1  0
 10 11  1  0
 11 12  1  0
 12 13  1  0
 13 14  2  0
 14 15  1  0
 15 16  2  0
 16 17  1  0
 17 18  2  0
 10 19  1  0
 19 20  1  0
  6 21  2  0
 21 22  1  0
 22 23  2  0
 23  1  1  0
 22  4  1  0
 20  7  1  0
 18 13  1  0
  1 24  1  0
  2 25  1  0
  3 26  1  0
  7 27  1  0
  8 28  1  0
  8 29  1  0
  9 30  1  0
  9 31  1  0
 10 32  1  0
 11 33  1  0
 12 34  1  0
 12 35  1  0
 14 36  1  0
 15 37  1  0
 17 38  1  0
 18 39  1  0
 19 40  1  0
 19 41  1  0
 20 42  1  0
 20 43  1  0
 23 44  1  0
M  END
>  <Energy>  (695) 
414.42008275489667

>  <compound_id>  (695) 
52796

>  <target_id>  (695) 
1

>  <reference_id>  (695) 
59

>  <inspiration_ids>  (695) 
[2, 59]

>  <energy_score>  (695) 
337.9319144347445

>  <distance_score>  (695) 
12.00855438270792

>  <path>  (695) 
/opt/xchem-fragalysis-2/maxwin/BulkDock/SCRATCH/511021/C52796-P59/C52796-P59.minimised.mol

>  <scratch_subdir>  (695) 
/opt/xchem-fragalysis-2/maxwin/BulkDock/SCRATCH/511021/C52796-P59

>  <fragmenstein_runtime>  (695) 
21.32064700126648

>  <fragmenstein_outcome>  (695) 
too moved

>  <fragmenstein_mode>  (695) 
expansion

>  <fragmenstein_error>  (695) 


$$$$
C38745-P2
     RDKit          3D

 36 38  0  0  0  0  0  0  0  0999 V2000
  -11.2979  -22.2556    3.1110 N   0  0  0  0  0  0  0  0  0  0  0  0
  -10.4056  -22.6503    3.7434 C   0  0  0  0  0  0  0  0  0  0  0  0
   -9.3238  -23.2467    4.5300 C   0  0  0  0  0  0  0  0  0  0  0  0
   -7.9510  -22.8716    4.0032 C   0  0  0  0  0  0  0  0  0  0  0  0
   -7.7299  -21.8635    3.3270 O   0  0  0  0  0  0  0  0  0  0  0  0
   -6.7898  -23.7690    4.4263 C   0  0  0  0  0  0  0  0  0  0  0  0
   -5.7439  -23.9567    3.3238 C   0  0  0  0  0  0  0  0  0  0  0  0
   -6.0876  -25.0693    2.3295 C   0  0  0  0  0  0  0  0  0  0  0  0
   -7.2929  -24.8282    1.5635 N   0  0  0  0  0  0  0  0  0  0  0  0
   -7.3750  -24.2902    0.3138 C   0  0  0  0  0  0  0  0  0  0  0  0
   -8.7112  -24.2793   -0.0079 C   0  0  0  0  0  0  0  0  0  0  0  0
   -9.3539  -24.8322    1.1140 C   0  0  0  0  0  0  0  0  0  0  0  0
   -8.4942  -25.1557    2.0873 N   0  0  0  0  0  0  0  0  0  0  0  0
   -9.3786  -22.8038    5.9445 C   0  0  0  0  0  0  0  0  0  0  0  0
   -9.5559  -21.5943    6.4407 N   0  0  0  0  0  0  0  0  0  0  0  0
   -9.3318  -21.7528    7.7814 C   0  0  0  0  0  0  0  0  0  0  0  0
   -9.2717  -20.8136    8.8093 C   0  0  0  0  0  0  0  0  0  0  0  0
   -8.8830  -21.2568   10.0820 C   0  0  0  0  0  0  0  0  0  0  0  0
   -8.6392  -22.6112   10.3365 C   0  0  0  0  0  0  0  0  0  0  0  0
   -8.7378  -23.5711    9.3228 C   0  0  0  0  0  0  0  0  0  0  0  0
   -9.0578  -23.0792    8.0644 C   0  0  0  0  0  0  0  0  0  0  0  0
   -9.0998  -23.7681    6.8867 O   0  0  0  0  0  0  0  0  0  0  0  0
   -9.4292  -24.3362    4.4818 H   0  0  0  0  0  0  0  0  0  0  0  0
   -6.3251  -23.2836    5.2924 H   0  0  0  0  0  0  0  0  0  0  0  0
   -7.1652  -24.7414    4.7616 H   0  0  0  0  0  0  0  0  0  0  0  0
   -4.7933  -24.2256    3.8010 H   0  0  0  0  0  0  0  0  0  0  0  0
   -5.5693  -23.0181    2.7848 H   0  0  0  0  0  0  0  0  0  0  0  0
   -5.2661  -25.1915    1.6140 H   0  0  0  0  0  0  0  0  0  0  0  0
   -6.2124  -26.0289    2.8450 H   0  0  0  0  0  0  0  0  0  0  0  0
   -6.5003  -23.9633   -0.2309 H   0  0  0  0  0  0  0  0  0  0  0  0
   -9.1613  -23.9193   -0.9222 H   0  0  0  0  0  0  0  0  0  0  0  0
  -10.4139  -24.9995    1.2624 H   0  0  0  0  0  0  0  0  0  0  0  0
   -9.4567  -19.7712    8.5884 H   0  0  0  0  0  0  0  0  0  0  0  0
   -8.7460  -20.5359   10.8857 H   0  0  0  0  0  0  0  0  0  0  0  0
   -8.3225  -22.9117   11.3341 H   0  0  0  0  0  0  0  0  0  0  0  0
   -8.5149  -24.6158    9.4949 H   0  0  0  0  0  0  0  0  0  0  0  0
  1  2  3  0
  2  3  1  0
  3  4  1  0
  4  5  2  0
  4  6  1  0
  6  7  1  0
  7  8  1  0
  8  9  1  0
  9 10  1  0
 10 11  2  0
 11 12  1  0
 12 13  2  0
  3 14  1  0
 14 15  2  0
 15 16  1  0
 16 17  2  0
 17 18  1  0
 18 19  2  0
 19 20  1  0
 20 21  2  0
 21 22  1  0
 13  9  1  0
 22 14  1  0
 21 16  1  0
  3 23  1  0
  6 24  1  0
  6 25  1  0
  7 26  1  0
  7 27  1  0
  8 28  1  0
  8 29  1  0
 10 30  1  0
 11 31  1  0
 12 32  1  0
 17 33  1  0
 18 34  1  0
 19 35  1  0
 20 36  1  0
M  END
>  <Energy>  (696) 
17.933472201893643

>  <compound_id>  (696) 
38745

>  <target_id>  (696) 
1

>  <reference_id>  (696) 
2

>  <inspiration_ids>  (696) 
[2, 59]

>  <energy_score>  (696) 
-36.23852234760318

>  <distance_score>  (696) 
0.47269708290254564

>  <path>  (696) 
/opt/xchem-fragalysis-2/maxwin/BulkDock/SCRATCH/511021/C38745-P2/C38745-P2.minimised.mol

>  <scratch_subdir>  (696) 
/opt/xchem-fragalysis-2/maxwin/BulkDock/SCRATCH/511021/C38745-P2

>  <fragmenstein_runtime>  (696) 
1.836726427078247

>  <fragmenstein_outcome>  (696) 
acceptable

>  <fragmenstein_mode>  (696) 
expansion

>  <fragmenstein_error>  (696) 


$$$$
C38745-P59
     RDKit          3D

 36 38  0  0  0  0  0  0  0  0999 V2000
   -7.6686  -24.7866    2.2040 N   0  0  0  0  0  0  0  0  0  0  0  0
   -7.6279  -23.9777    3.0365 C   0  0  0  0  0  0  0  0  0  0  0  0
   -7.5539  -22.9594    4.0848 C   0  0  0  0  0  0  0  0  0  0  0  0
   -6.2729  -23.1102    4.8820 C   0  0  0  0  0  0  0  0  0  0  0  0
   -5.3996  -22.2366    4.8219 O   0  0  0  0  0  0  0  0  0  0  0  0
   -6.0819  -24.3446    5.7588 C   0  0  0  0  0  0  0  0  0  0  0  0
   -4.6100  -24.6272    6.0539 C   0  0  0  0  0  0  0  0  0  0  0  0
   -4.4517  -25.9312    6.8343 C   0  0  0  0  0  0  0  0  0  0  0  0
   -3.0627  -26.2768    7.0692 N   0  0  0  0  0  0  0  0  0  0  0  0
   -2.4091  -26.2848    8.2672 C   0  0  0  0  0  0  0  0  0  0  0  0
   -1.1240  -26.6918    7.9964 C   0  0  0  0  0  0  0  0  0  0  0  0
   -1.1089  -26.9229    6.6092 C   0  0  0  0  0  0  0  0  0  0  0  0
   -2.2931  -26.6823    6.0411 N   0  0  0  0  0  0  0  0  0  0  0  0
   -8.7252  -23.0087    4.9767 C   0  0  0  0  0  0  0  0  0  0  0  0
   -9.5559  -22.0284    5.2789 N   0  0  0  0  0  0  0  0  0  0  0  0
  -10.4801  -22.6439    6.0831 C   0  0  0  0  0  0  0  0  0  0  0  0
  -11.6088  -22.1357    6.7263 C   0  0  0  0  0  0  0  0  0  0  0  0
  -12.3282  -23.0035    7.5660 C   0  0  0  0  0  0  0  0  0  0  0  0
  -11.9423  -24.3437    7.7370 C   0  0  0  0  0  0  0  0  0  0  0  0
  -10.8290  -24.8736    7.0734 C   0  0  0  0  0  0  0  0  0  0  0  0
  -10.1399  -23.9741    6.2705 C   0  0  0  0  0  0  0  0  0  0  0  0
   -9.0111  -24.2151    5.5573 O   0  0  0  0  0  0  0  0  0  0  0  0
   -7.5234  -21.9707    3.6089 H   0  0  0  0  0  0  0  0  0  0  0  0
   -6.6237  -24.1859    6.6972 H   0  0  0  0  0  0  0  0  0  0  0  0
   -6.5122  -25.2117    5.2470 H   0  0  0  0  0  0  0  0  0  0  0  0
   -4.1733  -23.7974    6.6243 H   0  0  0  0  0  0  0  0  0  0  0  0
   -4.0511  -24.6798    5.1109 H   0  0  0  0  0  0  0  0  0  0  0  0
   -4.9488  -25.8589    7.8084 H   0  0  0  0  0  0  0  0  0  0  0  0
   -4.8988  -26.7728    6.2923 H   0  0  0  0  0  0  0  0  0  0  0  0
   -2.8969  -26.0031    9.1896 H   0  0  0  0  0  0  0  0  0  0  0  0
   -0.3136  -26.8094    8.7011 H   0  0  0  0  0  0  0  0  0  0  0  0
   -0.2876  -27.2593    5.9899 H   0  0  0  0  0  0  0  0  0  0  0  0
  -11.8801  -21.1073    6.5654 H   0  0  0  0  0  0  0  0  0  0  0  0
  -13.2132  -22.6600    8.0903 H   0  0  0  0  0  0  0  0  0  0  0  0
  -12.5259  -24.9879    8.3912 H   0  0  0  0  0  0  0  0  0  0  0  0
  -10.5096  -25.8995    7.1930 H   0  0  0  0  0  0  0  0  0  0  0  0
  1  2  3  0
  2  3  1  0
  3  4  1  0
  4  5  2  0
  4  6  1  0
  6  7  1  0
  7  8  1  0
  8  9  1  0
  9 10  1  0
 10 11  2  0
 11 12  1  0
 12 13  2  0
  3 14  1  0
 14 15  2  0
 15 16  1  0
 16 17  2  0
 17 18  1  0
 18 19  2  0
 19 20  1  0
 20 21  2  0
 21 22  1  0
 13  9  1  0
 22 14  1  0
 21 16  1  0
  3 23  1  0
  6 24  1  0
  6 25  1  0
  7 26  1  0
  7 27  1  0
  8 28  1  0
  8 29  1  0
 10 30  1  0
 11 31  1  0
 12 32  1  0
 17 33  1  0
 18 34  1  0
 19 35  1  0
 20 36  1  0
M  END
>  <Energy>  (697) 
24.216980150881589

>  <compound_id>  (697) 
38745

>  <target_id>  (697) 
1

>  <reference_id>  (697) 
59

>  <inspiration_ids>  (697) 
[2, 59]

>  <energy_score>  (697) 
-29.955014398616406

>  <distance_score>  (697) 
3.188700952264435

>  <path>  (697) 
/opt/xchem-fragalysis-2/maxwin/BulkDock/SCRATCH/511021/C38745-P59/C38745-P59.minimised.mol

>  <scratch_subdir>  (697) 
/opt/xchem-fragalysis-2/maxwin/BulkDock/SCRATCH/511021/C38745-P59

>  <fragmenstein_runtime>  (697) 
1.5548386573791504

>  <fragmenstein_outcome>  (697) 
too moved

>  <fragmenstein_mode>  (697) 
expansion

>  <fragmenstein_error>  (697) 


$$$$
C52805-P2
     RDKit          3D

 33 35  0  0  0  0  0  0  0  0999 V2000
   -8.6148  -20.9371   10.9165 F   0  0  0  0  0  0  0  0  0  0  0  0
   -7.4929  -20.3504   11.3332 C   0  0  0  0  0  0  0  0  0  0  0  0
   -6.5977  -20.8549   12.0654 C   0  0  0  0  0  0  0  0  0  0  0  0
   -5.1998  -19.9786   12.3415 C   0  0  0  0  0  0  0  0  0  0  0  0
   -5.2869  -18.8673   13.0289 C   0  0  0  0  0  0  0  0  0  0  0  0
   -4.0555  -18.0060   14.0891 O   0  0  0  0  0  0  0  0  0  0  0  0
   -4.5894  -16.7552   14.5267 C   0  0  0  0  0  0  0  0  0  0  0  0
   -3.8185  -16.3568   16.3814 S   0  0  0  0  0  0  0  0  0  0  0  0
   -2.5712  -14.4326   16.6486 C   0  0  0  0  0  0  0  0  0  0  0  0
   -2.1049  -12.9905   17.7796 C   0  0  0  0  0  0  0  0  0  0  0  0
   -2.8432  -11.5264   18.2962 C   0  0  0  0  0  0  0  0  0  0  0  0
   -2.3132  -10.3861   19.2103 C   0  0  0  0  0  0  0  0  0  0  0  0
   -1.9804   -9.1180   18.7239 C   0  0  0  0  0  0  0  0  0  0  0  0
   -1.6152   -8.0627   19.5877 C   0  0  0  0  0  0  0  0  0  0  0  0
   -1.6377   -8.1318   20.9314 N   0  0  0  0  0  0  0  0  0  0  0  0
   -1.9773   -9.3426   21.4040 C   0  0  0  0  0  0  0  0  0  0  0  0
   -2.2948  -10.4549   20.5957 C   0  0  0  0  0  0  0  0  0  0  0  0
   -5.9886  -16.6844   13.8172 N   0  0  0  0  0  0  0  0  0  0  0  0
   -6.4145  -18.1344   12.8577 C   0  0  0  0  0  0  0  0  0  0  0  0
   -7.3803  -19.2061   11.9896 C   0  0  0  0  0  0  0  0  0  0  0  0
   -6.6303  -21.9403   12.1986 H   0  0  0  0  0  0  0  0  0  0  0  0
   -4.2055  -20.4455   12.3728 H   0  0  0  0  0  0  0  0  0  0  0  0
   -2.0203  -14.9564   17.4214 H   0  0  0  0  0  0  0  0  0  0  0  0
   -1.7831  -14.5118   15.9071 H   0  0  0  0  0  0  0  0  0  0  0  0
   -1.8188  -13.4405   18.7072 H   0  0  0  0  0  0  0  0  0  0  0  0
   -1.0896  -12.7666   17.5146 H   0  0  0  0  0  0  0  0  0  0  0  0
   -3.1676  -10.9784   17.4170 H   0  0  0  0  0  0  0  0  0  0  0  0
   -3.7690  -11.8049   18.7981 H   0  0  0  0  0  0  0  0  0  0  0  0
   -1.9781   -8.9374   17.6683 H   0  0  0  0  0  0  0  0  0  0  0  0
   -1.3169   -7.1025   19.1781 H   0  0  0  0  0  0  0  0  0  0  0  0
   -2.0189   -9.4122   22.4850 H   0  0  0  0  0  0  0  0  0  0  0  0
   -2.5674  -11.3823   21.0424 H   0  0  0  0  0  0  0  0  0  0  0  0
   -8.5503  -19.0995   12.0032 H   0  0  0  0  0  0  0  0  0  0  0  0
  1  2  1  0
  2  3  2  0
  3  4  1  0
  4  5  2  0
  5  6  1  0
  6  7  1  0
  7  8  1  0
  8  9  1  0
  9 10  1  0
 10 11  1  0
 11 12  1  0
 12 13  2  0
 13 14  1  0
 14 15  2  0
 15 16  1  0
 16 17  2  0
  7 18  2  0
 18 19  1  0
 19 20  2  0
 20  2  1  0
 19  5  1  0
 17 12  1  0
  3 21  1  0
  4 22  1  0
  9 23  1  0
  9 24  1  0
 10 25  1  0
 10 26  1  0
 11 27  1  0
 11 28  1  0
 13 29  1  0
 14 30  1  0
 16 31  1  0
 17 32  1  0
 20 33  1  0
M  END
>  <Energy>  (698) 
514.32668350971107

>  <compound_id>  (698) 
52805

>  <target_id>  (698) 
1

>  <reference_id>  (698) 
2

>  <inspiration_ids>  (698) 
[2, 59]

>  <energy_score>  (698) 
480.65817070741565

>  <distance_score>  (698) 
10.649133603968334

>  <path>  (698) 
/opt/xchem-fragalysis-2/maxwin/BulkDock/SCRATCH/511021/C52805-P2/C52805-P2.minimised.mol

>  <scratch_subdir>  (698) 
/opt/xchem-fragalysis-2/maxwin/BulkDock/SCRATCH/511021/C52805-P2

>  <fragmenstein_runtime>  (698) 
10.898423433303833

>  <fragmenstein_outcome>  (698) 
too moved

>  <fragmenstein_mode>  (698) 
expansion

>  <fragmenstein_error>  (698) 


$$$$
C52805-P59
     RDKit          3D

 33 35  0  0  0  0  0  0  0  0999 V2000
  -11.5541  -21.4422    6.3717 F   0  0  0  0  0  0  0  0  0  0  0  0
  -10.8328  -20.7154    7.2261 C   0  0  0  0  0  0  0  0  0  0  0  0
   -9.8279  -19.9093    6.8699 C   0  0  0  0  0  0  0  0  0  0  0  0
   -9.0857  -19.4409    8.0175 C   0  0  0  0  0  0  0  0  0  0  0  0
   -9.2253  -20.0373    9.3588 C   0  0  0  0  0  0  0  0  0  0  0  0
   -8.5906  -19.8731   10.9263 O   0  0  0  0  0  0  0  0  0  0  0  0
   -9.4749  -18.7420   11.8438 C   0  0  0  0  0  0  0  0  0  0  0  0
   -9.1276  -16.9860   13.3482 S   0  0  0  0  0  0  0  0  0  0  0  0
   -7.6961  -15.6225   14.9021 C   0  0  0  0  0  0  0  0  0  0  0  0
   -6.9106  -14.4015   16.4949 C   0  0  0  0  0  0  0  0  0  0  0  0
   -5.8593  -12.9020   17.6273 C   0  0  0  0  0  0  0  0  0  0  0  0
   -4.2718  -11.9852   18.1767 C   0  0  0  0  0  0  0  0  0  0  0  0
   -2.9512  -12.4153   17.9734 C   0  0  0  0  0  0  0  0  0  0  0  0
   -1.9462  -11.4953   18.1045 C   0  0  0  0  0  0  0  0  0  0  0  0
   -2.1087  -10.1975   18.2508 N   0  0  0  0  0  0  0  0  0  0  0  0
   -3.1556  -10.0735   18.9945 C   0  0  0  0  0  0  0  0  0  0  0  0
   -4.0600  -11.1896   19.2232 C   0  0  0  0  0  0  0  0  0  0  0  0
  -10.3120  -18.5424   10.4921 N   0  0  0  0  0  0  0  0  0  0  0  0
  -10.4660  -19.4820    9.2531 C   0  0  0  0  0  0  0  0  0  0  0  0
  -11.2289  -20.4726    8.5211 C   0  0  0  0  0  0  0  0  0  0  0  0
   -9.6110  -19.6262    5.8516 H   0  0  0  0  0  0  0  0  0  0  0  0
   -8.5863  -18.4798    7.9419 H   0  0  0  0  0  0  0  0  0  0  0  0
   -6.8611  -16.1136   14.3957 H   0  0  0  0  0  0  0  0  0  0  0  0
   -7.9600  -16.2783   15.7395 H   0  0  0  0  0  0  0  0  0  0  0  0
   -7.6936  -13.8902   17.0186 H   0  0  0  0  0  0  0  0  0  0  0  0
   -6.4739  -15.3001   16.8992 H   0  0  0  0  0  0  0  0  0  0  0  0
   -6.0623  -12.9108   18.7288 H   0  0  0  0  0  0  0  0  0  0  0  0
   -6.5664  -12.0181   17.8017 H   0  0  0  0  0  0  0  0  0  0  0  0
   -2.6492  -13.3758   17.5601 H   0  0  0  0  0  0  0  0  0  0  0  0
   -0.9792  -11.8734   17.9739 H   0  0  0  0  0  0  0  0  0  0  0  0
   -3.1607   -9.1743   19.5813 H   0  0  0  0  0  0  0  0  0  0  0  0
   -4.5882  -11.2806   20.1595 H   0  0  0  0  0  0  0  0  0  0  0  0
  -11.9929  -21.1012    8.9215 H   0  0  0  0  0  0  0  0  0  0  0  0
  1  2  1  0
  2  3  2  0
  3  4  1  0
  4  5  2  0
  5  6  1  0
  6  7  1  0
  7  8  1  0
  8  9  1  0
  9 10  1  0
 10 11  1  0
 11 12  1  0
 12 13  2  0
 13 14  1  0
 14 15  2  0
 15 16  1  0
 16 17  2  0
  7 18  2  0
 18 19  1  0
 19 20  2  0
 20  2  1  0
 19  5  1  0
 17 12  1  0
  3 21  1  0
  4 22  1  0
  9 23  1  0
  9 24  1  0
 10 25  1  0
 10 26  1  0
 11 27  1  0
 11 28  1  0
 13 29  1  0
 14 30  1  0
 16 31  1  0
 17 32  1  0
 20 33  1  0
M  END
>  <Energy>  (699) 
1078.5267955974184

>  <compound_id>  (699) 
52805

>  <target_id>  (699) 
1

>  <reference_id>  (699) 
59

>  <inspiration_ids>  (699) 
[2, 59]

>  <energy_score>  (699) 
1044.8582827951327

>  <distance_score>  (699) 
11.003250268225832

>  <path>  (699) 
/opt/xchem-fragalysis-2/maxwin/BulkDock/SCRATCH/511021/C52805-P59/C52805-P59.minimised.mol

>  <scratch_subdir>  (699) 
/opt/xchem-fragalysis-2/maxwin/BulkDock/SCRATCH/511021/C52805-P59

>  <fragmenstein_runtime>  (699) 
8.071194887161255

>  <fragmenstein_outcome>  (699) 
too moved

>  <fragmenstein_mode>  (699) 
expansion

>  <fragmenstein_error>  (699) 


$$$$
C52812-P2
     RDKit          3D

 39 42  0  0  0  0  0  0  0  0999 V2000
   -3.7863  -15.9403   22.3788 C   0  0  0  0  0  0  0  0  0  0  0  0
   -5.0460  -15.6366   22.9121 C   0  0  0  0  0  0  0  0  0  0  0  0
   -5.4617  -14.3020   23.0859 C   0  0  0  0  0  0  0  0  0  0  0  0
   -4.5577  -13.3083   22.6930 C   0  0  0  0  0  0  0  0  0  0  0  0
   -4.6790  -11.9401   22.8121 O   0  0  0  0  0  0  0  0  0  0  0  0
   -3.4727  -11.4427   22.3494 C   0  0  0  0  0  0  0  0  0  0  0  0
   -3.0214   -9.9557   22.6719 C   0  0  0  0  0  0  0  0  0  0  0  0
   -1.6200  -10.0522   23.3548 C   0  0  0  0  0  0  0  0  0  0  0  0
   -1.6287  -10.5107   24.7166 O   0  0  0  0  0  0  0  0  0  0  0  0
   -2.9119  -10.4270   25.3362 C   0  0  0  0  0  0  0  0  0  0  0  0
   -3.6456   -9.1388   24.9506 C   0  0  0  0  0  0  0  0  0  0  0  0
   -3.9341   -8.9741   23.5019 N   0  0  0  0  0  0  0  0  0  0  0  0
   -3.7088   -7.5151   23.1089 C   0  0  0  0  0  0  0  0  0  0  0  0
   -4.4979   -6.2824   23.7856 C   0  0  0  0  0  0  0  0  0  0  0  0
   -3.3713   -4.7590   23.8423 C   0  0  0  0  0  0  0  0  0  0  0  0
   -3.2848   -3.7325   25.4104 C   0  0  0  0  0  0  0  0  0  0  0  0
   -4.8148   -3.8945   26.6723 N   0  0  0  0  0  0  0  0  0  0  0  0
   -5.7936   -5.7026   26.6851 C   0  0  0  0  0  0  0  0  0  0  0  0
   -5.9107   -6.6168   24.9777 C   0  0  0  0  0  0  0  0  0  0  0  0
   -2.7006  -12.3863   21.8107 N   0  0  0  0  0  0  0  0  0  0  0  0
   -3.3228  -13.5731   22.1242 C   0  0  0  0  0  0  0  0  0  0  0  0
   -2.9142  -14.9142   21.9695 C   0  0  0  0  0  0  0  0  0  0  0  0
   -3.4834  -16.9785   22.2628 H   0  0  0  0  0  0  0  0  0  0  0  0
   -5.7119  -16.4441   23.2103 H   0  0  0  0  0  0  0  0  0  0  0  0
   -6.4222  -14.0494   23.5177 H   0  0  0  0  0  0  0  0  0  0  0  0
   -2.8426   -9.5023   21.6909 H   0  0  0  0  0  0  0  0  0  0  0  0
   -0.9437  -10.7077   22.7946 H   0  0  0  0  0  0  0  0  0  0  0  0
   -1.1440   -9.0646   23.3600 H   0  0  0  0  0  0  0  0  0  0  0  0
   -3.4959  -11.3201   25.0955 H   0  0  0  0  0  0  0  0  0  0  0  0
   -2.7490  -10.4460   26.4192 H   0  0  0  0  0  0  0  0  0  0  0  0
   -3.0225   -8.3099   25.3104 H   0  0  0  0  0  0  0  0  0  0  0  0
   -4.5919   -9.1015   25.4986 H   0  0  0  0  0  0  0  0  0  0  0  0
   -2.6471   -7.2925   23.2741 H   0  0  0  0  0  0  0  0  0  0  0  0
   -3.8725   -7.4096   22.0427 H   0  0  0  0  0  0  0  0  0  0  0  0
   -2.5569   -4.6648   23.1241 H   0  0  0  0  0  0  0  0  0  0  0  0
   -3.2183   -2.6465   25.3762 H   0  0  0  0  0  0  0  0  0  0  0  0
   -6.5197   -5.9016   27.5098 H   0  0  0  0  0  0  0  0  0  0  0  0
   -6.4132   -7.5858   24.9637 H   0  0  0  0  0  0  0  0  0  0  0  0
   -1.9449  -15.1387   21.5386 H   0  0  0  0  0  0  0  0  0  0  0  0
  1  2  2  0
  2  3  1  0
  3  4  2  0
  4  5  1  0
  5  6  1  0
  6  7  1  0
  7  8  1  0
  8  9  1  0
  9 10  1  0
 10 11  1  0
 11 12  1  0
 12 13  1  0
 13 14  1  0
 14 15  2  0
 15 16  1  0
 16 17  2  0
 17 18  1  0
 18 19  2  0
  6 20  2  0
 20 21  1  0
 21 22  2  0
 22  1  1  0
 21  4  1  0
 12  7  1  0
 19 14  1  0
  1 23  1  0
  2 24  1  0
  3 25  1  0
  7 26  1  0
  8 27  1  0
  8 28  1  0
 10 29  1  0
 10 30  1  0
 11 31  1  0
 11 32  1  0
 13 33  1  0
 13 34  1  0
 15 35  1  0
 16 36  1  0
 18 37  1  0
 19 38  1  0
 22 39  1  0
M  END
>  <Energy>  (700) 
745.82591598186684

>  <compound_id>  (700) 
52812

>  <target_id>  (700) 
1

>  <reference_id>  (700) 
2

>  <inspiration_ids>  (700) 
[2, 59]

>  <energy_score>  (700) 
588.2955370642021

>  <distance_score>  (700) 
14.653610178274873

>  <path>  (700) 
/opt/xchem-fragalysis-2/maxwin/BulkDock/SCRATCH/511021/C52812-P2/C52812-P2.minimised.mol

>  <scratch_subdir>  (700) 
/opt/xchem-fragalysis-2/maxwin/BulkDock/SCRATCH/511021/C52812-P2

>  <fragmenstein_runtime>  (700) 
11.947436571121216

>  <fragmenstein_outcome>  (700) 
too moved

>  <fragmenstein_mode>  (700) 
expansion

>  <fragmenstein_error>  (700) 


$$$$
C52812-P59
     RDKit          3D

 39 42  0  0  0  0  0  0  0  0999 V2000
  -13.2958  -15.4300   16.3713 C   0  0  0  0  0  0  0  0  0  0  0  0
  -12.8801  -16.5807   17.0504 C   0  0  0  0  0  0  0  0  0  0  0  0
  -12.1814  -16.5000   18.2644 C   0  0  0  0  0  0  0  0  0  0  0  0
  -11.9461  -15.2163   18.7487 C   0  0  0  0  0  0  0  0  0  0  0  0
  -11.3148  -14.8568   19.9134 O   0  0  0  0  0  0  0  0  0  0  0  0
  -11.4127  -13.4634   19.9670 C   0  0  0  0  0  0  0  0  0  0  0  0
  -11.4985  -12.8471   21.3950 C   0  0  0  0  0  0  0  0  0  0  0  0
  -12.6775  -11.8366   21.4747 C   0  0  0  0  0  0  0  0  0  0  0  0
  -12.7992  -11.1935   22.7602 O   0  0  0  0  0  0  0  0  0  0  0  0
  -12.4198  -12.0507   23.8405 C   0  0  0  0  0  0  0  0  0  0  0  0
  -10.9729  -12.5919   23.7063 C   0  0  0  0  0  0  0  0  0  0  0  0
  -10.3353  -12.4377   22.3551 N   0  0  0  0  0  0  0  0  0  0  0  0
   -9.8334  -11.0002   22.2328 C   0  0  0  0  0  0  0  0  0  0  0  0
   -9.0634  -10.3487   23.4249 C   0  0  0  0  0  0  0  0  0  0  0  0
   -9.3108   -9.0078   23.7935 C   0  0  0  0  0  0  0  0  0  0  0  0
   -8.5290   -8.3866   24.7738 C   0  0  0  0  0  0  0  0  0  0  0  0
   -7.5157   -8.9935   25.4232 N   0  0  0  0  0  0  0  0  0  0  0  0
   -7.2949  -10.2838   25.0763 C   0  0  0  0  0  0  0  0  0  0  0  0
   -8.0226  -10.9917   24.1054 C   0  0  0  0  0  0  0  0  0  0  0  0
  -11.9454  -12.9569   18.8549 N   0  0  0  0  0  0  0  0  0  0  0  0
  -12.3476  -14.0537   18.1129 C   0  0  0  0  0  0  0  0  0  0  0  0
  -13.0371  -14.1523   16.8913 C   0  0  0  0  0  0  0  0  0  0  0  0
  -13.8443  -15.5149   15.4363 H   0  0  0  0  0  0  0  0  0  0  0  0
  -13.1339  -17.5532   16.6389 H   0  0  0  0  0  0  0  0  0  0  0  0
  -11.8742  -17.3711   18.8260 H   0  0  0  0  0  0  0  0  0  0  0  0
  -11.8879  -13.7436   21.9093 H   0  0  0  0  0  0  0  0  0  0  0  0
  -13.6284  -12.3417   21.2664 H   0  0  0  0  0  0  0  0  0  0  0  0
  -12.5614  -11.0386   20.7330 H   0  0  0  0  0  0  0  0  0  0  0  0
  -13.1366  -12.8789   23.8924 H   0  0  0  0  0  0  0  0  0  0  0  0
  -12.5140  -11.4744   24.7665 H   0  0  0  0  0  0  0  0  0  0  0  0
  -10.9961  -13.6655   23.9428 H   0  0  0  0  0  0  0  0  0  0  0  0
  -10.3595  -12.1904   24.5171 H   0  0  0  0  0  0  0  0  0  0  0  0
  -10.6611  -10.3285   21.9883 H   0  0  0  0  0  0  0  0  0  0  0  0
   -9.1658  -10.9817   21.3640 H   0  0  0  0  0  0  0  0  0  0  0  0
  -10.0949   -8.4376   23.3025 H   0  0  0  0  0  0  0  0  0  0  0  0
   -8.7101   -7.3530   25.0541 H   0  0  0  0  0  0  0  0  0  0  0  0
   -6.4775  -10.7672   25.6054 H   0  0  0  0  0  0  0  0  0  0  0  0
   -7.7542  -12.0163   23.8660 H   0  0  0  0  0  0  0  0  0  0  0  0
  -13.3553  -13.2574   16.3677 H   0  0  0  0  0  0  0  0  0  0  0  0
  1  2  2  0
  2  3  1  0
  3  4  2  0
  4  5  1  0
  5  6  1  0
  6  7  1  0
  7  8  1  0
  8  9  1  0
  9 10  1  0
 10 11  1  0
 11 12  1  0
 12 13  1  0
 13 14  1  0
 14 15  2  0
 15 16  1  0
 16 17  2  0
 17 18  1  0
 18 19  2  0
  6 20  2  0
 20 21  1  0
 21 22  2  0
 22  1  1  0
 21  4  1  0
 12  7  1  0
 19 14  1  0
  1 23  1  0
  2 24  1  0
  3 25  1  0
  7 26  1  0
  8 27  1  0
  8 28  1  0
 10 29  1  0
 10 30  1  0
 11 31  1  0
 11 32  1  0
 13 33  1  0
 13 34  1  0
 15 35  1  0
 16 36  1  0
 18 37  1  0
 19 38  1  0
 22 39  1  0
M  END
>  <Energy>  (701) 
159.9620520566011

>  <compound_id>  (701) 
52812

>  <target_id>  (701) 
1

>  <reference_id>  (701) 
59

>  <inspiration_ids>  (701) 
[2, 59]

>  <energy_score>  (701) 
2.431673138942358

>  <distance_score>  (701) 
13.50859170052187

>  <path>  (701) 
/opt/xchem-fragalysis-2/maxwin/BulkDock/SCRATCH/511021/C52812-P59/C52812-P59.minimised.mol

>  <scratch_subdir>  (701) 
/opt/xchem-fragalysis-2/maxwin/BulkDock/SCRATCH/511021/C52812-P59

>  <fragmenstein_runtime>  (701) 
17.355371952056885

>  <fragmenstein_outcome>  (701) 
too moved

>  <fragmenstein_mode>  (701) 
expansion

>  <fragmenstein_error>  (701) 


$$$$
C52813-P2
     RDKit          3D

 43 47  0  0  0  0  0  0  0  0999 V2000
   -6.4213  -17.7768   12.9911 C   0  0  0  0  0  0  0  0  0  0  0  0
   -5.8112  -18.9406   12.4488 C   0  0  0  0  0  0  0  0  0  0  0  0
   -4.2809  -18.9868   12.5747 C   0  0  0  0  0  0  0  0  0  0  0  0
   -3.2886  -17.8618   13.8095 C   0  0  0  0  0  0  0  0  0  0  0  0
   -2.2493  -16.5441   13.1158 O   0  0  0  0  0  0  0  0  0  0  0  0
   -2.7744  -15.0919   13.6598 C   0  0  0  0  0  0  0  0  0  0  0  0
   -3.9668  -13.4736   13.1156 C   0  0  0  0  0  0  0  0  0  0  0  0
   -5.3828  -14.1786   12.7392 C   0  0  0  0  0  0  0  0  0  0  0  0
   -6.2418  -13.0726   12.1355 O   0  0  0  0  0  0  0  0  0  0  0  0
   -7.0638  -12.3421   12.9816 C   0  0  0  0  0  0  0  0  0  0  0  0
   -5.8510  -11.1679   13.4234 C   0  0  0  0  0  0  0  0  0  0  0  0
   -4.4706  -11.4559   13.7554 N   0  0  0  0  0  0  0  0  0  0  0  0
   -3.3443  -10.0997   14.8792 C   0  0  0  0  0  0  0  0  0  0  0  0
   -3.3471   -9.6960   16.8442 C   0  0  0  0  0  0  0  0  0  0  0  0
   -2.9027   -8.6507   17.6015 N   0  0  0  0  0  0  0  0  0  0  0  0
   -2.3484   -8.9458   18.8849 C   0  0  0  0  0  0  0  0  0  0  0  0
   -2.5279  -10.1909   19.3363 C   0  0  0  0  0  0  0  0  0  0  0  0
   -2.8976  -11.2299   18.1217 S   0  0  0  0  0  0  0  0  0  0  0  0
   -2.1958  -10.3961   20.7482 C   0  0  0  0  0  0  0  0  0  0  0  0
   -1.6522   -9.0375   21.2111 C   0  0  0  0  0  0  0  0  0  0  0  0
   -1.6922   -8.1332   19.9589 C   0  0  0  0  0  0  0  0  0  0  0  0
   -2.9215  -15.8125   14.8654 N   0  0  0  0  0  0  0  0  0  0  0  0
   -3.9803  -16.8373   14.5723 C   0  0  0  0  0  0  0  0  0  0  0  0
   -5.6002  -16.6647   14.0297 C   0  0  0  0  0  0  0  0  0  0  0  0
   -7.4907  -17.6546   12.9919 H   0  0  0  0  0  0  0  0  0  0  0  0
   -6.3508  -19.6424   11.8214 H   0  0  0  0  0  0  0  0  0  0  0  0
   -3.6157  -19.6541   11.9893 H   0  0  0  0  0  0  0  0  0  0  0  0
   -3.6420  -13.5323   14.0482 H   0  0  0  0  0  0  0  0  0  0  0  0
   -5.2909  -15.0490   12.0616 H   0  0  0  0  0  0  0  0  0  0  0  0
   -5.9638  -14.8737   13.1805 H   0  0  0  0  0  0  0  0  0  0  0  0
   -7.9157  -12.1271   12.3060 H   0  0  0  0  0  0  0  0  0  0  0  0
   -7.7686  -12.8680   13.5934 H   0  0  0  0  0  0  0  0  0  0  0  0
   -6.1571  -10.1508   13.6331 H   0  0  0  0  0  0  0  0  0  0  0  0
   -5.3168  -11.4472   12.5561 H   0  0  0  0  0  0  0  0  0  0  0  0
   -3.2551  -10.5945   15.8674 H   0  0  0  0  0  0  0  0  0  0  0  0
   -2.3430   -9.7893   14.4836 H   0  0  0  0  0  0  0  0  0  0  0  0
   -3.0952  -10.6166   21.3028 H   0  0  0  0  0  0  0  0  0  0  0  0
   -1.4802  -11.1982   20.8673 H   0  0  0  0  0  0  0  0  0  0  0  0
   -2.2734   -8.6227   22.0141 H   0  0  0  0  0  0  0  0  0  0  0  0
   -0.6344   -9.1247   21.6071 H   0  0  0  0  0  0  0  0  0  0  0  0
   -2.2544   -7.2576   20.2215 H   0  0  0  0  0  0  0  0  0  0  0  0
   -0.6676   -7.8650   19.6845 H   0  0  0  0  0  0  0  0  0  0  0  0
   -6.3615  -16.3128   14.7590 H   0  0  0  0  0  0  0  0  0  0  0  0
  1  2  2  0
  2  3  1  0
  3  4  2  0
  4  5  1  0
  5  6  1  0
  6  7  1  0
  7  8  1  0
  8  9  1  0
  9 10  1  0
 10 11  1  0
 11 12  1  0
 12 13  1  0
 13 14  1  0
 14 15  2  0
 15 16  1  0
 16 17  2  0
 17 18  1  0
 17 19  1  0
 19 20  1  0
 20 21  1  0
  6 22  2  0
 22 23  1  0
 23 24  2  0
 24  1  1  0
 23  4  1  0
 12  7  1  0
 18 14  1  0
 21 16  1  0
  1 25  1  0
  2 26  1  0
  3 27  1  0
  7 28  1  0
  8 29  1  0
  8 30  1  0
 10 31  1  0
 10 32  1  0
 11 33  1  0
 11 34  1  0
 13 35  1  0
 13 36  1  0
 19 37  1  0
 19 38  1  0
 20 39  1  0
 20 40  1  0
 21 41  1  0
 21 42  1  0
 24 43  1  0
M  END
>  <Energy>  (702) 
1252.1736981665483

>  <compound_id>  (702) 
52813

>  <target_id>  (702) 
1

>  <reference_id>  (702) 
2

>  <inspiration_ids>  (702) 
[2, 59]

>  <energy_score>  (702) 
1000.1364581094365

>  <distance_score>  (702) 
12.180887208425176

>  <path>  (702) 
/opt/xchem-fragalysis-2/maxwin/BulkDock/SCRATCH/511021/C52813-P2/C52813-P2.minimised.mol

>  <scratch_subdir>  (702) 
/opt/xchem-fragalysis-2/maxwin/BulkDock/SCRATCH/511021/C52813-P2

>  <fragmenstein_runtime>  (702) 
22.53141140937805

>  <fragmenstein_outcome>  (702) 
too moved

>  <fragmenstein_mode>  (702) 
expansion

>  <fragmenstein_error>  (702) 


$$$$
C52813-P59
     RDKit          3D

 43 47  0  0  0  0  0  0  0  0999 V2000
   -3.4947  -17.9090   14.3577 C   0  0  0  0  0  0  0  0  0  0  0  0
   -4.5060  -18.7485   13.8200 C   0  0  0  0  0  0  0  0  0  0  0  0
   -6.0792  -18.0441   13.5151 C   0  0  0  0  0  0  0  0  0  0  0  0
   -6.3537  -16.5059   13.7824 C   0  0  0  0  0  0  0  0  0  0  0  0
   -7.5375  -15.2891   14.3002 O   0  0  0  0  0  0  0  0  0  0  0  0
   -7.1137  -13.6743   13.5388 C   0  0  0  0  0  0  0  0  0  0  0  0
   -8.0344  -11.8723   13.8270 C   0  0  0  0  0  0  0  0  0  0  0  0
   -9.1393  -12.2484   12.8749 C   0  0  0  0  0  0  0  0  0  0  0  0
  -10.0231  -11.2706   12.5150 O   0  0  0  0  0  0  0  0  0  0  0  0
   -9.6753   -9.9618   12.8422 C   0  0  0  0  0  0  0  0  0  0  0  0
   -9.1489   -9.5898   14.2058 C   0  0  0  0  0  0  0  0  0  0  0  0
   -7.8713  -10.0767   14.7748 N   0  0  0  0  0  0  0  0  0  0  0  0
   -7.1957   -9.1610   16.5296 C   0  0  0  0  0  0  0  0  0  0  0  0
   -7.9195   -8.0317   18.1349 C   0  0  0  0  0  0  0  0  0  0  0  0
   -8.1871   -8.1498   19.5416 N   0  0  0  0  0  0  0  0  0  0  0  0
   -8.3475   -6.6908   20.4455 C   0  0  0  0  0  0  0  0  0  0  0  0
   -9.2935   -5.8790   19.8912 C   0  0  0  0  0  0  0  0  0  0  0  0
   -9.7907   -6.8761   18.7090 S   0  0  0  0  0  0  0  0  0  0  0  0
   -9.7395   -4.5824   20.7499 C   0  0  0  0  0  0  0  0  0  0  0  0
   -8.6191   -4.5482   21.8221 C   0  0  0  0  0  0  0  0  0  0  0  0
   -7.9543   -5.9953   21.8352 C   0  0  0  0  0  0  0  0  0  0  0  0
   -5.6657  -14.1248   13.0268 N   0  0  0  0  0  0  0  0  0  0  0  0
   -5.2362  -15.7672   13.4478 C   0  0  0  0  0  0  0  0  0  0  0  0
   -3.8159  -16.4636   14.1921 C   0  0  0  0  0  0  0  0  0  0  0  0
   -2.4794  -18.2549   14.5138 H   0  0  0  0  0  0  0  0  0  0  0  0
   -4.2230  -19.6674   13.2848 H   0  0  0  0  0  0  0  0  0  0  0  0
   -6.4850  -18.4591   12.5652 H   0  0  0  0  0  0  0  0  0  0  0  0
   -7.0527  -11.6872   13.3891 H   0  0  0  0  0  0  0  0  0  0  0  0
   -8.7092  -12.6242   11.9457 H   0  0  0  0  0  0  0  0  0  0  0  0
   -9.6817  -13.1049   13.2808 H   0  0  0  0  0  0  0  0  0  0  0  0
   -9.0431   -9.4949   12.1086 H   0  0  0  0  0  0  0  0  0  0  0  0
  -10.6586   -9.5136   12.7453 H   0  0  0  0  0  0  0  0  0  0  0  0
   -9.0872   -8.5293   14.1288 H   0  0  0  0  0  0  0  0  0  0  0  0
   -9.9543   -9.8905   14.8330 H   0  0  0  0  0  0  0  0  0  0  0  0
   -6.2279   -9.6402   16.6213 H   0  0  0  0  0  0  0  0  0  0  0  0
   -7.1620  -10.0998   17.2176 H   0  0  0  0  0  0  0  0  0  0  0  0
  -10.6987   -4.6995   21.2796 H   0  0  0  0  0  0  0  0  0  0  0  0
   -9.9305   -3.6704   20.2025 H   0  0  0  0  0  0  0  0  0  0  0  0
   -9.0036   -4.2792   22.8115 H   0  0  0  0  0  0  0  0  0  0  0  0
   -7.8640   -3.7986   21.5551 H   0  0  0  0  0  0  0  0  0  0  0  0
   -6.9042   -5.7816   22.0014 H   0  0  0  0  0  0  0  0  0  0  0  0
   -8.4050   -6.4900   22.6908 H   0  0  0  0  0  0  0  0  0  0  0  0
   -2.9413  -15.7970   14.1751 H   0  0  0  0  0  0  0  0  0  0  0  0
  1  2  2  0
  2  3  1  0
  3  4  2  0
  4  5  1  0
  5  6  1  0
  6  7  1  0
  7  8  1  0
  8  9  1  0
  9 10  1  0
 10 11  1  0
 11 12  1  0
 12 13  1  0
 13 14  1  0
 14 15  2  0
 15 16  1  0
 16 17  2  0
 17 18  1  0
 17 19  1  0
 19 20  1  0
 20 21  1  0
  6 22  2  0
 22 23  1  0
 23 24  2  0
 24  1  1  0
 23  4  1  0
 12  7  1  0
 18 14  1  0
 21 16  1  0
  1 25  1  0
  2 26  1  0
  3 27  1  0
  7 28  1  0
  8 29  1  0
  8 30  1  0
 10 31  1  0
 10 32  1  0
 11 33  1  0
 11 34  1  0
 13 35  1  0
 13 36  1  0
 19 37  1  0
 19 38  1  0
 20 39  1  0
 20 40  1  0
 21 41  1  0
 21 42  1  0
 24 43  1  0
M  END
>  <Energy>  (703) 
1193.2345708133121

>  <compound_id>  (703) 
52813

>  <target_id>  (703) 
1

>  <reference_id>  (703) 
59

>  <inspiration_ids>  (703) 
[2, 59]

>  <energy_score>  (703) 
941.1973307562118

>  <distance_score>  (703) 
11.821227998185462

>  <path>  (703) 
/opt/xchem-fragalysis-2/maxwin/BulkDock/SCRATCH/511021/C52813-P59/C52813-P59.minimised.mol

>  <scratch_subdir>  (703) 
/opt/xchem-fragalysis-2/maxwin/BulkDock/SCRATCH/511021/C52813-P59

>  <fragmenstein_runtime>  (703) 
29.439327239990234

>  <fragmenstein_outcome>  (703) 
too moved

>  <fragmenstein_mode>  (703) 
expansion

>  <fragmenstein_error>  (703) 


$$$$
C14072-P2
     RDKit          3D

 36 39  0  0  0  0  0  0  0  0999 V2000
   -9.1963  -19.2381   11.8885 C   0  0  0  0  0  0  0  0  0  0  0  0
   -7.7578  -19.6971   11.6810 C   0  0  0  0  0  0  0  0  0  0  0  0
   -6.7023  -18.8383   12.3250 C   0  0  0  0  0  0  0  0  0  0  0  0
   -7.1099  -17.5718   13.1210 C   0  0  0  0  0  0  0  0  0  0  0  0
   -6.2962  -16.4432   14.0975 O   0  0  0  0  0  0  0  0  0  0  0  0
   -7.2396  -15.5283   15.3104 C   0  0  0  0  0  0  0  0  0  0  0  0
   -6.5751  -14.1099   16.6744 C   0  0  0  0  0  0  0  0  0  0  0  0
   -7.7890  -13.0114   17.5505 C   0  0  0  0  0  0  0  0  0  0  0  0
   -7.3803  -11.6767   18.0695 O   0  0  0  0  0  0  0  0  0  0  0  0
   -6.7868  -10.7056   17.1639 C   0  0  0  0  0  0  0  0  0  0  0  0
   -5.4698  -11.1817   17.1446 C   0  0  0  0  0  0  0  0  0  0  0  0
   -5.3196  -12.6319   17.3916 N   0  0  0  0  0  0  0  0  0  0  0  0
   -3.6771  -12.0445   18.3131 C   0  0  0  0  0  0  0  0  0  0  0  0
   -2.9802  -10.8805   19.1763 C   0  0  0  0  0  0  0  0  0  0  0  0
   -2.7008  -10.8882   20.5559 C   0  0  0  0  0  0  0  0  0  0  0  0
   -2.0038   -9.7167   20.9815 C   0  0  0  0  0  0  0  0  0  0  0  0
   -1.7104   -8.8430   20.0275 N   0  0  0  0  0  0  0  0  0  0  0  0
   -2.1747   -9.5091   18.5722 S   0  0  0  0  0  0  0  0  0  0  0  0
   -8.4589  -16.0936   14.8614 N   0  0  0  0  0  0  0  0  0  0  0  0
   -8.5183  -17.1721   13.5731 C   0  0  0  0  0  0  0  0  0  0  0  0
   -9.5798  -17.9452   12.8867 C   0  0  0  0  0  0  0  0  0  0  0  0
   -9.9279  -19.8722   11.4541 H   0  0  0  0  0  0  0  0  0  0  0  0
   -7.5039  -20.5845   11.1158 H   0  0  0  0  0  0  0  0  0  0  0  0
   -5.6819  -19.1839   12.2921 H   0  0  0  0  0  0  0  0  0  0  0  0
   -6.0734  -14.9644   17.0724 H   0  0  0  0  0  0  0  0  0  0  0  0
   -8.2431  -13.4416   18.4371 H   0  0  0  0  0  0  0  0  0  0  0  0
   -8.3563  -12.6180   16.7525 H   0  0  0  0  0  0  0  0  0  0  0  0
   -7.0760   -9.6475   17.2653 H   0  0  0  0  0  0  0  0  0  0  0  0
   -6.8396  -10.5174   16.1255 H   0  0  0  0  0  0  0  0  0  0  0  0
   -5.3004  -11.2709   18.1191 H   0  0  0  0  0  0  0  0  0  0  0  0
   -4.6965  -10.4546   16.8821 H   0  0  0  0  0  0  0  0  0  0  0  0
   -2.8239  -12.6358   17.9280 H   0  0  0  0  0  0  0  0  0  0  0  0
   -4.1594  -12.2624   19.2886 H   0  0  0  0  0  0  0  0  0  0  0  0
   -2.9985  -11.6865   21.2225 H   0  0  0  0  0  0  0  0  0  0  0  0
   -1.7046   -9.4823   21.9949 H   0  0  0  0  0  0  0  0  0  0  0  0
  -10.5886  -17.7564   13.2253 H   0  0  0  0  0  0  0  0  0  0  0  0
  1  2  2  0
  2  3  1  0
  3  4  2  0
  4  5  1  0
  5  6  1  0
  6  7  1  0
  7  8  1  0
  8  9  1  0
  9 10  1  0
 10 11  1  0
 11 12  1  0
 12 13  1  0
 13 14  1  0
 14 15  2  0
 15 16  1  0
 16 17  2  0
 17 18  1  0
  6 19  2  0
 19 20  1  0
 20 21  2  0
 21  1  1  0
 20  4  1  0
 12  7  1  0
 18 14  1  0
  1 22  1  0
  2 23  1  0
  3 24  1  0
  7 25  1  0
  8 26  1  0
  8 27  1  0
 10 28  1  0
 10 29  1  0
 11 30  1  0
 11 31  1  0
 13 32  1  0
 13 33  1  0
 15 34  1  0
 16 35  1  0
 21 36  1  0
M  END
>  <Energy>  (704) 
891.27811440588516

>  <compound_id>  (704) 
14072

>  <target_id>  (704) 
1

>  <reference_id>  (704) 
2

>  <inspiration_ids>  (704) 
[2, 59]

>  <energy_score>  (704) 
727.0439044987413

>  <distance_score>  (704) 
11.233167527242303

>  <path>  (704) 
/opt/xchem-fragalysis-2/maxwin/BulkDock/SCRATCH/511021/C14072-P2/C14072-P2.minimised.mol

>  <scratch_subdir>  (704) 
/opt/xchem-fragalysis-2/maxwin/BulkDock/SCRATCH/511021/C14072-P2

>  <fragmenstein_runtime>  (704) 
13.572399377822876

>  <fragmenstein_outcome>  (704) 
too moved

>  <fragmenstein_mode>  (704) 
expansion

>  <fragmenstein_error>  (704) 


$$$$
C14072-P59
     RDKit          3D

 36 39  0  0  0  0  0  0  0  0999 V2000
   -6.8992  -19.6515   12.0125 C   0  0  0  0  0  0  0  0  0  0  0  0
   -8.2752  -19.7786   11.8964 C   0  0  0  0  0  0  0  0  0  0  0  0
   -9.1714  -18.5650   12.4360 C   0  0  0  0  0  0  0  0  0  0  0  0
   -8.6155  -17.2709   13.2768 C   0  0  0  0  0  0  0  0  0  0  0  0
   -9.0246  -16.4474   14.5784 O   0  0  0  0  0  0  0  0  0  0  0  0
   -7.7752  -15.6863   15.0808 C   0  0  0  0  0  0  0  0  0  0  0  0
   -7.3372  -14.8588   16.8193 C   0  0  0  0  0  0  0  0  0  0  0  0
   -5.9983  -15.2237   17.0804 C   0  0  0  0  0  0  0  0  0  0  0  0
   -5.5564  -13.5490   17.1544 O   0  0  0  0  0  0  0  0  0  0  0  0
   -5.7910  -12.3832   18.0111 C   0  0  0  0  0  0  0  0  0  0  0  0
   -7.2062  -11.9654   17.9216 C   0  0  0  0  0  0  0  0  0  0  0  0
   -7.9371  -13.2251   17.7819 N   0  0  0  0  0  0  0  0  0  0  0  0
   -7.7977  -13.0779   19.6005 C   0  0  0  0  0  0  0  0  0  0  0  0
   -6.5218  -12.1057   20.7850 C   0  0  0  0  0  0  0  0  0  0  0  0
   -5.1091  -11.6258   21.0406 C   0  0  0  0  0  0  0  0  0  0  0  0
   -4.7161  -11.5360   22.4791 C   0  0  0  0  0  0  0  0  0  0  0  0
   -5.5860  -11.8119   23.4331 N   0  0  0  0  0  0  0  0  0  0  0  0
   -7.0376  -12.4271   22.8576 S   0  0  0  0  0  0  0  0  0  0  0  0
   -6.8152  -16.2106   14.2344 N   0  0  0  0  0  0  0  0  0  0  0  0
   -7.1858  -17.3128   13.5014 C   0  0  0  0  0  0  0  0  0  0  0  0
   -6.4331  -18.3591   12.5768 C   0  0  0  0  0  0  0  0  0  0  0  0
   -6.2005  -20.3272   11.5359 H   0  0  0  0  0  0  0  0  0  0  0  0
   -8.7498  -20.5360   11.2909 H   0  0  0  0  0  0  0  0  0  0  0  0
   -9.7653  -18.4613   11.5913 H   0  0  0  0  0  0  0  0  0  0  0  0
   -7.9730  -15.6471   17.3429 H   0  0  0  0  0  0  0  0  0  0  0  0
   -5.7372  -15.8943   16.2393 H   0  0  0  0  0  0  0  0  0  0  0  0
   -5.2910  -15.8244   17.6520 H   0  0  0  0  0  0  0  0  0  0  0  0
   -5.1435  -11.5691   17.6833 H   0  0  0  0  0  0  0  0  0  0  0  0
   -5.4883  -12.5843   18.9999 H   0  0  0  0  0  0  0  0  0  0  0  0
   -7.2661  -11.1674   17.1937 H   0  0  0  0  0  0  0  0  0  0  0  0
   -7.5968  -11.3173   18.6868 H   0  0  0  0  0  0  0  0  0  0  0  0
   -8.7978  -12.5993   19.4383 H   0  0  0  0  0  0  0  0  0  0  0  0
   -8.3426  -13.8005   20.2482 H   0  0  0  0  0  0  0  0  0  0  0  0
   -4.4059  -11.5000   20.2338 H   0  0  0  0  0  0  0  0  0  0  0  0
   -3.7515  -11.2228   22.8407 H   0  0  0  0  0  0  0  0  0  0  0  0
   -6.3554  -17.7378   11.7088 H   0  0  0  0  0  0  0  0  0  0  0  0
  1  2  2  0
  2  3  1  0
  3  4  2  0
  4  5  1  0
  5  6  1  0
  6  7  1  0
  7  8  1  0
  8  9  1  0
  9 10  1  0
 10 11  1  0
 11 12  1  0
 12 13  1  0
 13 14  1  0
 14 15  2  0
 15 16  1  0
 16 17  2  0
 17 18  1  0
  6 19  2  0
 19 20  1  0
 20 21  2  0
 21  1  1  0
 20  4  1  0
 12  7  1  0
 18 14  1  0
  1 22  1  0
  2 23  1  0
  3 24  1  0
  7 25  1  0
  8 26  1  0
  8 27  1  0
 10 28  1  0
 10 29  1  0
 11 30  1  0
 11 31  1  0
 13 32  1  0
 13 33  1  0
 15 34  1  0
 16 35  1  0
 21 36  1  0
M  END
>  <Energy>  (705) 
767.0741100972848

>  <compound_id>  (705) 
14072

>  <target_id>  (705) 
1

>  <reference_id>  (705) 
59

>  <inspiration_ids>  (705) 
[2, 59]

>  <energy_score>  (705) 
602.8399001901472

>  <distance_score>  (705) 
11.59932239949815

>  <path>  (705) 
/opt/xchem-fragalysis-2/maxwin/BulkDock/SCRATCH/511021/C14072-P59/C14072-P59.minimised.mol

>  <scratch_subdir>  (705) 
/opt/xchem-fragalysis-2/maxwin/BulkDock/SCRATCH/511021/C14072-P59

>  <fragmenstein_runtime>  (705) 
10.421985864639282

>  <fragmenstein_outcome>  (705) 
too moved

>  <fragmenstein_mode>  (705) 
expansion

>  <fragmenstein_error>  (705) 


$$$$
C39638-P2
     RDKit          3D

 41 43  0  0  0  0  0  0  0  0999 V2000
   -6.8192   -8.1565   16.6085 C   0  0  0  0  0  0  0  0  0  0  0  0
   -8.2633   -8.0580   17.1102 C   0  0  0  0  0  0  0  0  0  0  0  0
   -9.2463   -8.4435   15.9461 C   0  0  0  0  0  0  0  0  0  0  0  0
   -9.3694   -9.9452   15.8691 N   0  0  0  0  0  0  0  0  0  0  0  0
  -10.5217  -10.3798   16.6708 C   0  0  0  0  0  0  0  0  0  0  0  0
   -9.3987  -10.5604   14.4915 C   0  0  0  0  0  0  0  0  0  0  0  0
   -9.5829  -12.0697   14.4669 C   0  0  0  0  0  0  0  0  0  0  0  0
  -10.6286  -12.7559   14.0329 N   0  0  0  0  0  0  0  0  0  0  0  0
  -10.4124  -14.0160   14.5290 C   0  0  0  0  0  0  0  0  0  0  0  0
  -11.1916  -15.1723   14.4731 C   0  0  0  0  0  0  0  0  0  0  0  0
  -10.7072  -16.3409   15.0815 C   0  0  0  0  0  0  0  0  0  0  0  0
   -9.4821  -16.3435   15.7503 C   0  0  0  0  0  0  0  0  0  0  0  0
   -8.6814  -15.1998   15.8092 C   0  0  0  0  0  0  0  0  0  0  0  0
   -9.1993  -14.0673   15.1920 C   0  0  0  0  0  0  0  0  0  0  0  0
   -8.6296  -12.8311   15.1053 O   0  0  0  0  0  0  0  0  0  0  0  0
   -8.3220   -6.8106   17.8813 N   0  0  0  0  0  0  0  0  0  0  0  0
   -8.0048   -5.4659   17.5165 C   0  0  0  0  0  0  0  0  0  0  0  0
   -7.6879   -4.9968   16.4635 O   0  0  0  0  0  0  0  0  0  0  0  0
   -7.9959   -4.5791   18.7376 C   0  0  0  0  0  0  0  0  0  0  0  0
   -7.5202   -3.2720   18.7241 C   0  0  0  0  0  0  0  0  0  0  0  0
   -7.2630   -2.6783   20.3145 S   0  0  0  0  0  0  0  0  0  0  0  0
   -7.8216   -4.1722   20.9260 C   0  0  0  0  0  0  0  0  0  0  0  0
   -8.2032   -5.0745   20.0443 N   0  0  0  0  0  0  0  0  0  0  0  0
   -6.0838   -7.8639   17.3540 H   0  0  0  0  0  0  0  0  0  0  0  0
   -6.5871   -9.1738   16.2756 H   0  0  0  0  0  0  0  0  0  0  0  0
   -6.6628   -7.4936   15.7490 H   0  0  0  0  0  0  0  0  0  0  0  0
   -8.4073   -8.8094   17.8948 H   0  0  0  0  0  0  0  0  0  0  0  0
   -8.8600   -8.0492   14.9985 H   0  0  0  0  0  0  0  0  0  0  0  0
  -10.2266   -7.9776   16.1032 H   0  0  0  0  0  0  0  0  0  0  0  0
  -10.5007  -11.4582   16.8559 H   0  0  0  0  0  0  0  0  0  0  0  0
  -10.5088   -9.9099   17.6601 H   0  0  0  0  0  0  0  0  0  0  0  0
  -11.4705  -10.1223   16.1868 H   0  0  0  0  0  0  0  0  0  0  0  0
   -8.4524  -10.3267   13.9905 H   0  0  0  0  0  0  0  0  0  0  0  0
  -10.2075  -10.1007   13.9107 H   0  0  0  0  0  0  0  0  0  0  0  0
  -12.1552  -15.1169   13.9879 H   0  0  0  0  0  0  0  0  0  0  0  0
  -11.3005  -17.2495   15.0609 H   0  0  0  0  0  0  0  0  0  0  0  0
   -9.1492  -17.2394   16.2604 H   0  0  0  0  0  0  0  0  0  0  0  0
   -7.7269  -15.1805   16.3154 H   0  0  0  0  0  0  0  0  0  0  0  0
   -8.4664   -6.8550   18.8880 H   0  0  0  0  0  0  0  0  0  0  0  0
   -7.2423   -2.6836   17.8599 H   0  0  0  0  0  0  0  0  0  0  0  0
   -7.8513   -4.3535   21.9876 H   0  0  0  0  0  0  0  0  0  0  0  0
  1  2  1  0
  2  3  1  0
  3  4  1  0
  4  5  1  0
  4  6  1  0
  6  7  1  0
  7  8  2  0
  8  9  1  0
  9 10  2  0
 10 11  1  0
 11 12  2  0
 12 13  1  0
 13 14  2  0
 14 15  1  0
  2 16  1  0
 16 17  1  0
 17 18  2  0
 17 19  1  0
 19 20  2  0
 20 21  1  0
 21 22  1  0
 22 23  2  0
 15  7  1  0
 23 19  1  0
 14  9  1  0
  1 24  1  0
  1 25  1  0
  1 26  1  0
  2 27  1  0
  3 28  1  0
  3 29  1  0
  5 30  1  0
  5 31  1  0
  5 32  1  0
  6 33  1  0
  6 34  1  0
 10 35  1  0
 11 36  1  0
 12 37  1  0
 13 38  1  0
 16 39  1  0
 20 40  1  0
 22 41  1  0
M  END
>  <Energy>  (706) 
94.993195830030089

>  <compound_id>  (706) 
39638

>  <target_id>  (706) 
1

>  <reference_id>  (706) 
2

>  <inspiration_ids>  (706) 
[2, 59]

>  <energy_score>  (706) 
-91.93897788194244

>  <distance_score>  (706) 
14.46112835100263

>  <path>  (706) 
/opt/xchem-fragalysis-2/maxwin/BulkDock/SCRATCH/511021/C39638-P2/C39638-P2.minimised.mol

>  <scratch_subdir>  (706) 
/opt/xchem-fragalysis-2/maxwin/BulkDock/SCRATCH/511021/C39638-P2

>  <fragmenstein_runtime>  (706) 
17.936339378356934

>  <fragmenstein_outcome>  (706) 
too moved

>  <fragmenstein_mode>  (706) 
expansion

>  <fragmenstein_error>  (706) 


$$$$
C39638-P59
     RDKit          3D

 41 43  0  0  0  0  0  0  0  0999 V2000
  -10.8410  -11.1325   23.8137 C   0  0  0  0  0  0  0  0  0  0  0  0
   -9.3672  -11.2642   22.7861 C   0  0  0  0  0  0  0  0  0  0  0  0
   -9.8641  -12.5488   21.2872 C   0  0  0  0  0  0  0  0  0  0  0  0
   -9.6316  -13.0153   19.5142 N   0  0  0  0  0  0  0  0  0  0  0  0
   -8.7029  -12.3101   18.6119 C   0  0  0  0  0  0  0  0  0  0  0  0
  -10.9285  -13.2001   18.7742 C   0  0  0  0  0  0  0  0  0  0  0  0
  -10.8779  -13.9925   17.5408 C   0  0  0  0  0  0  0  0  0  0  0  0
  -10.4901  -13.5963   16.3417 N   0  0  0  0  0  0  0  0  0  0  0  0
  -10.6488  -14.7134   15.6154 C   0  0  0  0  0  0  0  0  0  0  0  0
  -10.3089  -14.9720   14.3126 C   0  0  0  0  0  0  0  0  0  0  0  0
  -10.3689  -16.3101   13.9768 C   0  0  0  0  0  0  0  0  0  0  0  0
  -11.0050  -17.2548   14.7684 C   0  0  0  0  0  0  0  0  0  0  0  0
  -11.5825  -16.9324   15.9683 C   0  0  0  0  0  0  0  0  0  0  0  0
  -11.2449  -15.6883   16.3813 C   0  0  0  0  0  0  0  0  0  0  0  0
  -11.4374  -15.2240   17.6192 O   0  0  0  0  0  0  0  0  0  0  0  0
   -8.2989  -10.2973   23.4382 N   0  0  0  0  0  0  0  0  0  0  0  0
   -8.2801   -8.5371   23.5917 C   0  0  0  0  0  0  0  0  0  0  0  0
   -9.0875   -7.8605   23.0904 O   0  0  0  0  0  0  0  0  0  0  0  0
   -6.7773   -7.8326   24.9064 C   0  0  0  0  0  0  0  0  0  0  0  0
   -6.4699   -6.4024   25.0538 C   0  0  0  0  0  0  0  0  0  0  0  0
   -5.9151   -5.7047   27.3135 S   0  0  0  0  0  0  0  0  0  0  0  0
   -8.1864   -5.5562   26.9640 C   0  0  0  0  0  0  0  0  0  0  0  0
   -7.2262   -6.4745   26.1902 N   0  0  0  0  0  0  0  0  0  0  0  0
  -10.6330  -11.3577   24.8609 H   0  0  0  0  0  0  0  0  0  0  0  0
  -11.2894  -10.1336   23.7711 H   0  0  0  0  0  0  0  0  0  0  0  0
  -11.6389  -11.7545   23.3970 H   0  0  0  0  0  0  0  0  0  0  0  0
   -9.5904  -10.2390   22.7672 H   0  0  0  0  0  0  0  0  0  0  0  0
  -10.8178  -13.0417   21.6308 H   0  0  0  0  0  0  0  0  0  0  0  0
   -9.2252  -13.2783   21.4369 H   0  0  0  0  0  0  0  0  0  0  0  0
   -8.6231  -12.8118   17.6437 H   0  0  0  0  0  0  0  0  0  0  0  0
   -9.0066  -11.2782   18.4038 H   0  0  0  0  0  0  0  0  0  0  0  0
   -7.6656  -12.3402   18.9514 H   0  0  0  0  0  0  0  0  0  0  0  0
  -11.7077  -13.6185   19.4224 H   0  0  0  0  0  0  0  0  0  0  0  0
  -11.3067  -12.2425   18.3949 H   0  0  0  0  0  0  0  0  0  0  0  0
   -9.9176  -14.1907   13.6793 H   0  0  0  0  0  0  0  0  0  0  0  0
   -9.9546  -16.6673   13.0617 H   0  0  0  0  0  0  0  0  0  0  0  0
  -11.1207  -18.2454   14.3500 H   0  0  0  0  0  0  0  0  0  0  0  0
  -12.2144  -17.5581   16.5650 H   0  0  0  0  0  0  0  0  0  0  0  0
   -7.4555  -10.6773   23.8813 H   0  0  0  0  0  0  0  0  0  0  0  0
   -7.1672   -5.7688   24.4137 H   0  0  0  0  0  0  0  0  0  0  0  0
   -8.1697   -4.9453   27.8562 H   0  0  0  0  0  0  0  0  0  0  0  0
  1  2  1  0
  2  3  1  0
  3  4  1  0
  4  5  1  0
  4  6  1  0
  6  7  1  0
  7  8  2  0
  8  9  1  0
  9 10  2  0
 10 11  1  0
 11 12  2  0
 12 13  1  0
 13 14  2  0
 14 15  1  0
  2 16  1  0
 16 17  1  0
 17 18  2  0
 17 19  1  0
 19 20  2  0
 20 21  1  0
 21 22  1  0
 22 23  2  0
 15  7  1  0
 23 19  1  0
 14  9  1  0
  1 24  1  0
  1 25  1  0
  1 26  1  0
  2 27  1  0
  3 28  1  0
  3 29  1  0
  5 30  1  0
  5 31  1  0
  5 32  1  0
  6 33  1  0
  6 34  1  0
 10 35  1  0
 11 36  1  0
 12 37  1  0
 13 38  1  0
 16 39  1  0
 20 40  1  0
 22 41  1  0
M  END
>  <Energy>  (707) 
986.31541700506659

>  <compound_id>  (707) 
39638

>  <target_id>  (707) 
1

>  <reference_id>  (707) 
59

>  <inspiration_ids>  (707) 
[2, 59]

>  <energy_score>  (707) 
799.3832432930974

>  <distance_score>  (707) 
12.36374157244939

>  <path>  (707) 
/opt/xchem-fragalysis-2/maxwin/BulkDock/SCRATCH/511021/C39638-P59/C39638-P59.minimised.mol

>  <scratch_subdir>  (707) 
/opt/xchem-fragalysis-2/maxwin/BulkDock/SCRATCH/511021/C39638-P59

>  <fragmenstein_runtime>  (707) 
22.25185990333557

>  <fragmenstein_outcome>  (707) 
too moved

>  <fragmenstein_mode>  (707) 
expansion

>  <fragmenstein_error>  (707) 


$$$$
C39639-P2
     RDKit          3D

 41 43  0  0  0  0  0  0  0  0999 V2000
   -9.5035  -10.0173   23.0614 C   0  0  0  0  0  0  0  0  0  0  0  0
   -9.2982  -11.5126   22.9747 C   0  0  0  0  0  0  0  0  0  0  0  0
   -9.8538  -12.6851   21.4364 C   0  0  0  0  0  0  0  0  0  0  0  0
   -9.7303  -12.8403   19.4248 N   0  0  0  0  0  0  0  0  0  0  0  0
   -8.4021  -12.9885   18.8774 C   0  0  0  0  0  0  0  0  0  0  0  0
  -10.6945  -11.8705   18.1299 C   0  0  0  0  0  0  0  0  0  0  0  0
  -11.6019  -11.9421   16.5048 C   0  0  0  0  0  0  0  0  0  0  0  0
  -12.8059  -11.4372   16.2482 N   0  0  0  0  0  0  0  0  0  0  0  0
  -13.2159  -12.0687   15.0803 C   0  0  0  0  0  0  0  0  0  0  0  0
  -14.4472  -12.0526   14.4165 C   0  0  0  0  0  0  0  0  0  0  0  0
  -14.6156  -12.8944   13.3120 C   0  0  0  0  0  0  0  0  0  0  0  0
  -13.5770  -13.7076   12.8698 C   0  0  0  0  0  0  0  0  0  0  0  0
  -13.8437  -14.5068   11.8339 F   0  0  0  0  0  0  0  0  0  0  0  0
  -12.3198  -13.7170   13.4776 C   0  0  0  0  0  0  0  0  0  0  0  0
  -12.2137  -12.8789   14.5850 C   0  0  0  0  0  0  0  0  0  0  0  0
  -11.1573  -12.7277   15.4252 O   0  0  0  0  0  0  0  0  0  0  0  0
   -9.4662  -11.0494   24.7423 N   0  0  0  0  0  0  0  0  0  0  0  0
   -8.1761  -10.6063   25.9815 C   0  0  0  0  0  0  0  0  0  0  0  0
   -6.9906  -10.6915   25.8009 O   0  0  0  0  0  0  0  0  0  0  0  0
   -8.7491   -9.7067   27.6741 C   0  0  0  0  0  0  0  0  0  0  0  0
   -8.0163   -9.3244   28.9693 C   0  0  0  0  0  0  0  0  0  0  0  0
   -9.0947   -8.9899   30.3459 S   0  0  0  0  0  0  0  0  0  0  0  0
  -10.4360   -8.9289   29.2712 C   0  0  0  0  0  0  0  0  0  0  0  0
  -10.2448   -9.2474   27.9930 N   0  0  0  0  0  0  0  0  0  0  0  0
  -10.5573  -10.0378   23.4350 H   0  0  0  0  0  0  0  0  0  0  0  0
   -9.6932   -9.0311   22.5815 H   0  0  0  0  0  0  0  0  0  0  0  0
   -8.5129   -9.6422   23.1358 H   0  0  0  0  0  0  0  0  0  0  0  0
   -8.1969  -11.5609   22.7828 H   0  0  0  0  0  0  0  0  0  0  0  0
  -10.8573  -13.0741   21.6768 H   0  0  0  0  0  0  0  0  0  0  0  0
   -9.1990  -13.4285   21.4361 H   0  0  0  0  0  0  0  0  0  0  0  0
   -8.2834  -12.7635   17.8204 H   0  0  0  0  0  0  0  0  0  0  0  0
   -8.3691  -14.0431   18.9656 H   0  0  0  0  0  0  0  0  0  0  0  0
   -7.4852  -12.5725   19.2887 H   0  0  0  0  0  0  0  0  0  0  0  0
  -11.6939  -11.9148   18.4321 H   0  0  0  0  0  0  0  0  0  0  0  0
  -10.6062  -10.8302   18.4094 H   0  0  0  0  0  0  0  0  0  0  0  0
  -15.2589  -11.4329   14.7813 H   0  0  0  0  0  0  0  0  0  0  0  0
  -15.5701  -12.9285   12.7937 H   0  0  0  0  0  0  0  0  0  0  0  0
  -11.5138  -14.3505   13.1367 H   0  0  0  0  0  0  0  0  0  0  0  0
  -10.3945  -10.9685   25.1703 H   0  0  0  0  0  0  0  0  0  0  0  0
   -6.9543   -9.3492   29.1629 H   0  0  0  0  0  0  0  0  0  0  0  0
  -11.4175   -8.6663   29.6432 H   0  0  0  0  0  0  0  0  0  0  0  0
  1  2  1  0
  2  3  1  0
  3  4  1  0
  4  5  1  0
  4  6  1  0
  6  7  1  0
  7  8  2  0
  8  9  1  0
  9 10  2  0
 10 11  1  0
 11 12  2  0
 12 13  1  0
 12 14  1  0
 14 15  2  0
 15 16  1  0
  2 17  1  0
 17 18  1  0
 18 19  2  0
 18 20  1  0
 20 21  2  0
 21 22  1  0
 22 23  1  0
 23 24  2  0
 16  7  1  0
 24 20  1  0
 15  9  1  0
  1 25  1  0
  1 26  1  0
  1 27  1  0
  2 28  1  0
  3 29  1  0
  3 30  1  0
  5 31  1  0
  5 32  1  0
  5 33  1  0
  6 34  1  0
  6 35  1  0
 10 36  1  0
 11 37  1  0
 14 38  1  0
 17 39  1  0
 21 40  1  0
 23 41  1  0
M  END
>  <Energy>  (708) 
708.4095179340195

>  <compound_id>  (708) 
39639

>  <target_id>  (708) 
1

>  <reference_id>  (708) 
2

>  <inspiration_ids>  (708) 
[2, 59]

>  <energy_score>  (708) 
543.7393927135575

>  <distance_score>  (708) 
13.230739129530578

>  <path>  (708) 
/opt/xchem-fragalysis-2/maxwin/BulkDock/SCRATCH/511021/C39639-P2/C39639-P2.minimised.mol

>  <scratch_subdir>  (708) 
/opt/xchem-fragalysis-2/maxwin/BulkDock/SCRATCH/511021/C39639-P2

>  <fragmenstein_runtime>  (708) 
34.32047653198242

>  <fragmenstein_outcome>  (708) 
too moved

>  <fragmenstein_mode>  (708) 
expansion

>  <fragmenstein_error>  (708) 


$$$$
C39639-P59
     RDKit          3D

 41 43  0  0  0  0  0  0  0  0999 V2000
   -5.2141   -8.5528   15.9290 C   0  0  0  0  0  0  0  0  0  0  0  0
   -3.9376   -9.4075   15.9983 C   0  0  0  0  0  0  0  0  0  0  0  0
   -3.4771  -10.1035   14.6399 C   0  0  0  0  0  0  0  0  0  0  0  0
   -4.5585  -10.5959   13.6965 N   0  0  0  0  0  0  0  0  0  0  0  0
   -4.7900   -9.5615   12.6778 C   0  0  0  0  0  0  0  0  0  0  0  0
   -4.2406  -11.9330   13.0325 C   0  0  0  0  0  0  0  0  0  0  0  0
   -5.0960  -12.3837   11.8436 C   0  0  0  0  0  0  0  0  0  0  0  0
   -6.3612  -12.1241   11.5500 N   0  0  0  0  0  0  0  0  0  0  0  0
   -6.4963  -12.5155   10.2437 C   0  0  0  0  0  0  0  0  0  0  0  0
   -7.5643  -12.3706    9.3476 C   0  0  0  0  0  0  0  0  0  0  0  0
   -7.3673  -12.7843    8.0252 C   0  0  0  0  0  0  0  0  0  0  0  0
   -6.1554  -13.3552    7.6304 C   0  0  0  0  0  0  0  0  0  0  0  0
   -5.9869  -13.6699    6.3385 F   0  0  0  0  0  0  0  0  0  0  0  0
   -5.0995  -13.5603    8.5153 C   0  0  0  0  0  0  0  0  0  0  0  0
   -5.3217  -13.1016    9.8061 C   0  0  0  0  0  0  0  0  0  0  0  0
   -4.4366  -13.0885   10.8487 O   0  0  0  0  0  0  0  0  0  0  0  0
   -2.9506   -8.5657   16.7186 N   0  0  0  0  0  0  0  0  0  0  0  0
   -1.6828   -8.8890   17.2936 C   0  0  0  0  0  0  0  0  0  0  0  0
   -1.0523   -9.9046   17.2725 O   0  0  0  0  0  0  0  0  0  0  0  0
   -1.1826   -7.7248   18.1239 C   0  0  0  0  0  0  0  0  0  0  0  0
   -0.0321   -7.7499   18.9020 C   0  0  0  0  0  0  0  0  0  0  0  0
    0.1104   -6.3302   19.8658 S   0  0  0  0  0  0  0  0  0  0  0  0
   -1.3387   -5.7451   19.1714 C   0  0  0  0  0  0  0  0  0  0  0  0
   -1.9158   -6.5300   18.2808 N   0  0  0  0  0  0  0  0  0  0  0  0
   -5.5071   -8.1577   16.9030 H   0  0  0  0  0  0  0  0  0  0  0  0
   -5.0652   -7.6907   15.2700 H   0  0  0  0  0  0  0  0  0  0  0  0
   -6.0559   -9.1382   15.5462 H   0  0  0  0  0  0  0  0  0  0  0  0
   -4.1439  -10.2439   16.6765 H   0  0  0  0  0  0  0  0  0  0  0  0
   -2.7889   -9.4324   14.1086 H   0  0  0  0  0  0  0  0  0  0  0  0
   -2.8601  -10.9618   14.9392 H   0  0  0  0  0  0  0  0  0  0  0  0
   -5.7138   -9.7455   12.1228 H   0  0  0  0  0  0  0  0  0  0  0  0
   -4.9187   -8.5748   13.1335 H   0  0  0  0  0  0  0  0  0  0  0  0
   -3.9574   -9.4948   11.9679 H   0  0  0  0  0  0  0  0  0  0  0  0
   -4.3125  -12.7084   13.8038 H   0  0  0  0  0  0  0  0  0  0  0  0
   -3.1980  -11.9005   12.6901 H   0  0  0  0  0  0  0  0  0  0  0  0
   -8.4891  -11.9026    9.6680 H   0  0  0  0  0  0  0  0  0  0  0  0
   -8.1469  -12.6258    7.2855 H   0  0  0  0  0  0  0  0  0  0  0  0
   -4.1598  -13.9893    8.1960 H   0  0  0  0  0  0  0  0  0  0  0  0
   -3.2171   -7.6271   17.0115 H   0  0  0  0  0  0  0  0  0  0  0  0
    0.6934   -8.5484   18.9734 H   0  0  0  0  0  0  0  0  0  0  0  0
   -1.7552   -4.7858   19.4516 H   0  0  0  0  0  0  0  0  0  0  0  0
  1  2  1  0
  2  3  1  0
  3  4  1  0
  4  5  1  0
  4  6  1  0
  6  7  1  0
  7  8  2  0
  8  9  1  0
  9 10  2  0
 10 11  1  0
 11 12  2  0
 12 13  1  0
 12 14  1  0
 14 15  2  0
 15 16  1  0
  2 17  1  0
 17 18  1  0
 18 19  2  0
 18 20  1  0
 20 21  2  0
 21 22  1  0
 22 23  1  0
 23 24  2  0
 16  7  1  0
 24 20  1  0
 15  9  1  0
  1 25  1  0
  1 26  1  0
  1 27  1  0
  2 28  1  0
  3 29  1  0
  3 30  1  0
  5 31  1  0
  5 32  1  0
  5 33  1  0
  6 34  1  0
  6 35  1  0
 10 36  1  0
 11 37  1  0
 14 38  1  0
 17 39  1  0
 21 40  1  0
 23 41  1  0
M  END
>  <Energy>  (709) 
84.520886067096725

>  <compound_id>  (709) 
39639

>  <target_id>  (709) 
1

>  <reference_id>  (709) 
59

>  <inspiration_ids>  (709) 
[2, 59]

>  <energy_score>  (709) 
-80.14923915336402

>  <distance_score>  (709) 
14.365721457998502

>  <path>  (709) 
/opt/xchem-fragalysis-2/maxwin/BulkDock/SCRATCH/511021/C39639-P59/C39639-P59.minimised.mol

>  <scratch_subdir>  (709) 
/opt/xchem-fragalysis-2/maxwin/BulkDock/SCRATCH/511021/C39639-P59

>  <fragmenstein_runtime>  (709) 
18.497336626052856

>  <fragmenstein_outcome>  (709) 
too moved

>  <fragmenstein_mode>  (709) 
expansion

>  <fragmenstein_error>  (709) 


$$$$
C52787-P2
     RDKit          3D

 45 47  0  0  0  0  0  0  0  0999 V2000
   -3.2678  -10.4752   15.8065 C   0  0  0  0  0  0  0  0  0  0  0  0
   -2.7482  -10.3626   17.2058 C   0  0  0  0  0  0  0  0  0  0  0  0
   -2.2552  -11.3329   17.9419 N   0  0  0  0  0  0  0  0  0  0  0  0
   -2.1119  -10.7569   19.1838 C   0  0  0  0  0  0  0  0  0  0  0  0
   -1.6690  -11.3032   20.3685 C   0  0  0  0  0  0  0  0  0  0  0  0
   -1.8395  -10.5270   21.5540 C   0  0  0  0  0  0  0  0  0  0  0  0
   -2.4552   -9.2191   21.7352 C   0  0  0  0  0  0  0  0  0  0  0  0
   -2.7595   -9.1086   23.4002 C   0  0  0  0  0  0  0  0  0  0  0  0
   -2.8133  -10.2158   23.8721 O   0  0  0  0  0  0  0  0  0  0  0  0
   -2.8217   -7.7394   24.2568 N   0  0  0  0  0  0  0  0  0  0  0  0
   -2.8328   -7.5156   25.7159 C   0  0  0  0  0  0  0  0  0  0  0  0
   -4.6356   -7.1200   24.4439 C   0  0  0  0  0  0  0  0  0  0  0  0
   -6.1377   -6.8718   25.9993 C   0  0  0  0  0  0  0  0  0  0  0  0
   -6.2630   -8.0426   26.9099 O   0  0  0  0  0  0  0  0  0  0  0  0
   -6.5906   -5.8978   27.6457 C   0  0  0  0  0  0  0  0  0  0  0  0
   -6.1086   -4.4990   28.6969 N   0  0  0  0  0  0  0  0  0  0  0  0
   -4.9904   -3.2484   28.2192 C   0  0  0  0  0  0  0  0  0  0  0  0
   -3.3415   -2.5450   28.6935 C   0  0  0  0  0  0  0  0  0  0  0  0
   -2.6541   -1.5396   27.9136 C   0  0  0  0  0  0  0  0  0  0  0  0
   -1.5459   -1.1960   28.6364 C   0  0  0  0  0  0  0  0  0  0  0  0
   -1.5615   -1.8574   29.8110 O   0  0  0  0  0  0  0  0  0  0  0  0
   -2.6878   -2.6450   29.8890 N   0  0  0  0  0  0  0  0  0  0  0  0
   -2.5855   -8.5852   20.4629 C   0  0  0  0  0  0  0  0  0  0  0  0
   -2.4876   -9.4185   19.2191 C   0  0  0  0  0  0  0  0  0  0  0  0
   -2.8488   -9.1417   17.8833 O   0  0  0  0  0  0  0  0  0  0  0  0
   -2.6292   -9.9070   15.1247 H   0  0  0  0  0  0  0  0  0  0  0  0
   -3.2813  -11.5206   15.4858 H   0  0  0  0  0  0  0  0  0  0  0  0
   -4.2852  -10.0783   15.7506 H   0  0  0  0  0  0  0  0  0  0  0  0
   -1.2683  -12.3090   20.4115 H   0  0  0  0  0  0  0  0  0  0  0  0
   -1.4698  -11.0426   22.4466 H   0  0  0  0  0  0  0  0  0  0  0  0
   -3.6107   -7.7850   26.4340 H   0  0  0  0  0  0  0  0  0  0  0  0
   -2.1343   -6.7214   26.0131 H   0  0  0  0  0  0  0  0  0  0  0  0
   -2.1591   -8.3481   26.0028 H   0  0  0  0  0  0  0  0  0  0  0  0
   -4.5043   -6.2162   23.8444 H   0  0  0  0  0  0  0  0  0  0  0  0
   -5.0146   -7.5407   23.5427 H   0  0  0  0  0  0  0  0  0  0  0  0
   -6.8297   -6.5742   25.2548 H   0  0  0  0  0  0  0  0  0  0  0  0
   -7.1087   -8.5022   26.7658 H   0  0  0  0  0  0  0  0  0  0  0  0
   -7.6606   -5.6588   27.4955 H   0  0  0  0  0  0  0  0  0  0  0  0
   -6.7021   -6.6581   28.4394 H   0  0  0  0  0  0  0  0  0  0  0  0
   -5.9127   -4.8501   29.6221 H   0  0  0  0  0  0  0  0  0  0  0  0
   -5.7401   -2.5620   28.3415 H   0  0  0  0  0  0  0  0  0  0  0  0
   -4.9499   -3.0539   27.1440 H   0  0  0  0  0  0  0  0  0  0  0  0
   -2.9473   -1.1444   26.9615 H   0  0  0  0  0  0  0  0  0  0  0  0
   -0.7136   -0.5262   28.4803 H   0  0  0  0  0  0  0  0  0  0  0  0
   -2.9655   -7.5725   20.3710 H   0  0  0  0  0  0  0  0  0  0  0  0
  1  2  1  0
  2  3  2  0
  3  4  1  0
  4  5  2  0
  5  6  1  0
  6  7  2  0
  7  8  1  0
  8  9  2  0
  8 10  1  0
 10 11  1  0
 10 12  1  0
 12 13  1  0
 13 14  1  0
 13 15  1  0
 15 16  1  0
 16 17  1  0
 17 18  1  0
 18 19  1  0
 19 20  2  0
 20 21  1  0
 21 22  1  0
  7 23  1  0
 23 24  2  0
 24 25  1  0
 25  2  1  0
 24  4  1  0
 22 18  2  0
  1 26  1  0
  1 27  1  0
  1 28  1  0
  5 29  1  0
  6 30  1  0
 11 31  1  0
 11 32  1  0
 11 33  1  0
 12 34  1  0
 12 35  1  0
 13 36  1  0
 14 37  1  0
 15 38  1  0
 15 39  1  0
 16 40  1  0
 17 41  1  0
 17 42  1  0
 19 43  1  0
 20 44  1  0
 23 45  1  0
M  END
>  <Energy>  (710) 
646.42515624123234

>  <compound_id>  (710) 
52787

>  <target_id>  (710) 
1

>  <reference_id>  (710) 
2

>  <inspiration_ids>  (710) 
[2, 59]

>  <energy_score>  (710) 
530.6973051340724

>  <distance_score>  (710) 
12.657159676472812

>  <path>  (710) 
/opt/xchem-fragalysis-2/maxwin/BulkDock/SCRATCH/511021/C52787-P2/C52787-P2.minimised.mol

>  <scratch_subdir>  (710) 
/opt/xchem-fragalysis-2/maxwin/BulkDock/SCRATCH/511021/C52787-P2

>  <fragmenstein_runtime>  (710) 
14.619331359863281

>  <fragmenstein_outcome>  (710) 
too moved

>  <fragmenstein_mode>  (710) 
expansion

>  <fragmenstein_error>  (710) 


$$$$
C52787-P59
     RDKit          3D

 45 47  0  0  0  0  0  0  0  0999 V2000
  -15.6377  -19.6649   15.1941 C   0  0  0  0  0  0  0  0  0  0  0  0
  -14.3490  -18.9927   15.0295 C   0  0  0  0  0  0  0  0  0  0  0  0
  -13.3334  -19.1806   14.2224 N   0  0  0  0  0  0  0  0  0  0  0  0
  -11.7791  -18.2250   14.5930 C   0  0  0  0  0  0  0  0  0  0  0  0
  -10.4423  -18.6959   15.6018 C   0  0  0  0  0  0  0  0  0  0  0  0
   -9.8510  -18.3717   17.2579 C   0  0  0  0  0  0  0  0  0  0  0  0
  -10.8433  -17.3100   18.0149 C   0  0  0  0  0  0  0  0  0  0  0  0
  -10.3515  -15.6085   19.2442 C   0  0  0  0  0  0  0  0  0  0  0  0
  -11.3848  -15.1724   19.6452 O   0  0  0  0  0  0  0  0  0  0  0  0
   -8.9511  -14.5091   19.9061 N   0  0  0  0  0  0  0  0  0  0  0  0
   -8.9832  -13.3906   20.5892 C   0  0  0  0  0  0  0  0  0  0  0  0
   -8.0148  -12.9010   19.2715 C   0  0  0  0  0  0  0  0  0  0  0  0
   -6.8554  -12.0406   20.9412 C   0  0  0  0  0  0  0  0  0  0  0  0
   -6.4039  -12.6834   22.2182 O   0  0  0  0  0  0  0  0  0  0  0  0
   -7.4968  -11.2242   22.7410 C   0  0  0  0  0  0  0  0  0  0  0  0
   -6.8167  -11.1125   24.4176 N   0  0  0  0  0  0  0  0  0  0  0  0
   -7.3403  -10.4941   25.7397 C   0  0  0  0  0  0  0  0  0  0  0  0
   -6.8539   -9.0886   27.0305 C   0  0  0  0  0  0  0  0  0  0  0  0
   -5.5191   -9.1399   27.8029 C   0  0  0  0  0  0  0  0  0  0  0  0
   -5.8535   -8.9043   29.0947 C   0  0  0  0  0  0  0  0  0  0  0  0
   -7.1072   -8.4470   29.1394 O   0  0  0  0  0  0  0  0  0  0  0  0
   -7.7040   -8.5205   27.9142 N   0  0  0  0  0  0  0  0  0  0  0  0
  -11.9254  -17.5910   17.0994 C   0  0  0  0  0  0  0  0  0  0  0  0
  -12.6006  -17.7577   15.7825 C   0  0  0  0  0  0  0  0  0  0  0  0
  -13.9834  -18.0057   15.8235 O   0  0  0  0  0  0  0  0  0  0  0  0
  -15.6328  -20.6579   14.7353 H   0  0  0  0  0  0  0  0  0  0  0  0
  -15.8643  -19.7970   16.2570 H   0  0  0  0  0  0  0  0  0  0  0  0
  -16.4456  -19.0752   14.7513 H   0  0  0  0  0  0  0  0  0  0  0  0
  -10.2142  -19.7387   15.2914 H   0  0  0  0  0  0  0  0  0  0  0  0
   -8.8034  -17.8995   17.3350 H   0  0  0  0  0  0  0  0  0  0  0  0
   -9.7023  -13.2103   19.7452 H   0  0  0  0  0  0  0  0  0  0  0  0
   -9.2589  -13.1364   21.6035 H   0  0  0  0  0  0  0  0  0  0  0  0
   -9.9286  -12.9765   20.9802 H   0  0  0  0  0  0  0  0  0  0  0  0
   -7.4292  -12.8197   18.3612 H   0  0  0  0  0  0  0  0  0  0  0  0
   -8.7393  -12.1394   18.8664 H   0  0  0  0  0  0  0  0  0  0  0  0
   -5.8750  -11.6552   20.6067 H   0  0  0  0  0  0  0  0  0  0  0  0
   -7.0362  -13.0448   22.8436 H   0  0  0  0  0  0  0  0  0  0  0  0
   -8.4000  -11.7570   22.7976 H   0  0  0  0  0  0  0  0  0  0  0  0
   -6.4800  -11.2485   23.0141 H   0  0  0  0  0  0  0  0  0  0  0  0
   -6.1694  -11.8976   24.5525 H   0  0  0  0  0  0  0  0  0  0  0  0
   -6.6754  -11.2774   26.1769 H   0  0  0  0  0  0  0  0  0  0  0  0
   -8.3393  -10.8763   25.9268 H   0  0  0  0  0  0  0  0  0  0  0  0
   -4.6049   -9.6483   27.5254 H   0  0  0  0  0  0  0  0  0  0  0  0
   -5.3612   -9.0638   30.0404 H   0  0  0  0  0  0  0  0  0  0  0  0
  -12.6153  -18.4058   17.5849 H   0  0  0  0  0  0  0  0  0  0  0  0
  1  2  1  0
  2  3  2  0
  3  4  1  0
  4  5  2  0
  5  6  1  0
  6  7  2  0
  7  8  1  0
  8  9  2  0
  8 10  1  0
 10 11  1  0
 10 12  1  0
 12 13  1  0
 13 14  1  0
 13 15  1  0
 15 16  1  0
 16 17  1  0
 17 18  1  0
 18 19  1  0
 19 20  2  0
 20 21  1  0
 21 22  1  0
  7 23  1  0
 23 24  2  0
 24 25  1  0
 25  2  1  0
 24  4  1  0
 22 18  2  0
  1 26  1  0
  1 27  1  0
  1 28  1  0
  5 29  1  0
  6 30  1  0
 11 31  1  0
 11 32  1  0
 11 33  1  0
 12 34  1  0
 12 35  1  0
 13 36  1  0
 14 37  1  0
 15 38  1  0
 15 39  1  0
 16 40  1  0
 17 41  1  0
 17 42  1  0
 19 43  1  0
 20 44  1  0
 23 45  1  0
M  END
>  <Energy>  (711) 
1566.6999302113959

>  <compound_id>  (711) 
52787

>  <target_id>  (711) 
1

>  <reference_id>  (711) 
59

>  <inspiration_ids>  (711) 
[2, 59]

>  <energy_score>  (711) 
1450.9720791042278

>  <distance_score>  (711) 
11.93357531053783

>  <path>  (711) 
/opt/xchem-fragalysis-2/maxwin/BulkDock/SCRATCH/511021/C52787-P59/C52787-P59.minimised.mol

>  <scratch_subdir>  (711) 
/opt/xchem-fragalysis-2/maxwin/BulkDock/SCRATCH/511021/C52787-P59

>  <fragmenstein_runtime>  (711) 
20.03086566925049

>  <fragmenstein_outcome>  (711) 
too moved

>  <fragmenstein_mode>  (711) 
expansion

>  <fragmenstein_error>  (711) 


$$$$
C38744-P2
     RDKit          3D

 41 43  0  0  0  0  0  0  0  0999 V2000
   -4.3037  -15.6834   17.4977 C   0  0  0  0  0  0  0  0  0  0  0  0
   -4.4702  -15.1299   16.1932 O   0  0  0  0  0  0  0  0  0  0  0  0
   -5.3353  -14.0836   16.1390 C   0  0  0  0  0  0  0  0  0  0  0  0
   -5.9626  -13.6394   17.0842 O   0  0  0  0  0  0  0  0  0  0  0  0
   -5.3886  -13.5588   14.7586 C   0  0  0  0  0  0  0  0  0  0  0  0
   -4.5112  -13.9781   13.7385 C   0  0  0  0  0  0  0  0  0  0  0  0
   -4.5507  -13.4210   12.4515 C   0  0  0  0  0  0  0  0  0  0  0  0
   -5.4813  -12.4275   12.1260 C   0  0  0  0  0  0  0  0  0  0  0  0
   -6.3486  -11.9817   13.1357 C   0  0  0  0  0  0  0  0  0  0  0  0
   -7.2927  -10.9879   13.1226 N   0  0  0  0  0  0  0  0  0  0  0  0
   -7.6691  -10.8922   14.3821 C   0  0  0  0  0  0  0  0  0  0  0  0
   -8.3865   -9.8851   14.9336 N   0  0  0  0  0  0  0  0  0  0  0  0
   -8.4362   -9.5858   16.3964 C   0  0  0  0  0  0  0  0  0  0  0  0
   -8.2635   -8.0490   16.8931 C   0  0  0  0  0  0  0  0  0  0  0  0
   -9.2428   -7.1465   16.1212 C   0  0  0  0  0  0  0  0  0  0  0  0
   -8.7499   -7.9131   18.3640 C   0  0  0  0  0  0  0  0  0  0  0  0
   -6.8969   -7.5158   16.7169 N   0  0  0  0  0  0  0  0  0  0  0  0
   -5.7469   -8.1843   16.3992 C   0  0  0  0  0  0  0  0  0  0  0  0
   -4.7884   -7.2351   16.1316 C   0  0  0  0  0  0  0  0  0  0  0  0
   -5.4333   -6.0098   16.3253 C   0  0  0  0  0  0  0  0  0  0  0  0
   -6.7116   -6.1770   16.6683 N   0  0  0  0  0  0  0  0  0  0  0  0
   -7.1780  -11.8818   15.1876 O   0  0  0  0  0  0  0  0  0  0  0  0
   -6.2787  -12.5495   14.4008 C   0  0  0  0  0  0  0  0  0  0  0  0
   -3.8391  -14.9500   18.1639 H   0  0  0  0  0  0  0  0  0  0  0  0
   -5.2629  -16.0222   17.9016 H   0  0  0  0  0  0  0  0  0  0  0  0
   -3.6395  -16.5482   17.4166 H   0  0  0  0  0  0  0  0  0  0  0  0
   -3.7483  -14.7231   13.9601 H   0  0  0  0  0  0  0  0  0  0  0  0
   -3.8272  -13.7372   11.7037 H   0  0  0  0  0  0  0  0  0  0  0  0
   -5.5113  -11.9776   11.1396 H   0  0  0  0  0  0  0  0  0  0  0  0
   -8.5811   -9.1070   14.3133 H   0  0  0  0  0  0  0  0  0  0  0  0
   -9.4277   -9.9191   16.7298 H   0  0  0  0  0  0  0  0  0  0  0  0
   -7.7210  -10.2178   16.9310 H   0  0  0  0  0  0  0  0  0  0  0  0
  -10.2552   -7.5682   16.1246 H   0  0  0  0  0  0  0  0  0  0  0  0
   -9.3143   -6.1372   16.5429 H   0  0  0  0  0  0  0  0  0  0  0  0
   -8.9428   -7.0351   15.0725 H   0  0  0  0  0  0  0  0  0  0  0  0
   -8.3220   -8.6879   18.9826 H   0  0  0  0  0  0  0  0  0  0  0  0
   -9.8356   -8.0609   18.4205 H   0  0  0  0  0  0  0  0  0  0  0  0
   -8.5430   -6.9261   18.7845 H   0  0  0  0  0  0  0  0  0  0  0  0
   -5.6999   -9.2619   16.3408 H   0  0  0  0  0  0  0  0  0  0  0  0
   -3.7758   -7.4216   15.8128 H   0  0  0  0  0  0  0  0  0  0  0  0
   -5.0349   -5.0069   16.2303 H   0  0  0  0  0  0  0  0  0  0  0  0
  1  2  1  0
  2  3  1  0
  3  4  2  0
  3  5  1  0
  5  6  2  0
  6  7  1  0
  7  8  2  0
  8  9  1  0
  9 10  1  0
 10 11  2  0
 11 12  1  0
 12 13  1  0
 13 14  1  0
 14 15  1  0
 14 16  1  0
 14 17  1  0
 17 18  1  0
 18 19  2  0
 19 20  1  0
 20 21  2  0
 11 22  1  0
 22 23  1  0
 23  5  1  0
 23  9  2  0
 21 17  1  0
  1 24  1  0
  1 25  1  0
  1 26  1  0
  6 27  1  0
  7 28  1  0
  8 29  1  0
 12 30  1  0
 13 31  1  0
 13 32  1  0
 15 33  1  0
 15 34  1  0
 15 35  1  0
 16 36  1  0
 16 37  1  0
 16 38  1  0
 18 39  1  0
 19 40  1  0
 20 41  1  0
M  END
>  <Energy>  (712) 
10.125783814715774

>  <compound_id>  (712) 
38744

>  <target_id>  (712) 
1

>  <reference_id>  (712) 
2

>  <inspiration_ids>  (712) 
[2, 59]

>  <energy_score>  (712) 
-34.08605310165737

>  <distance_score>  (712) 
14.561141078311993

>  <path>  (712) 
/opt/xchem-fragalysis-2/maxwin/BulkDock/SCRATCH/511021/C38744-P2/C38744-P2.minimised.mol

>  <scratch_subdir>  (712) 
/opt/xchem-fragalysis-2/maxwin/BulkDock/SCRATCH/511021/C38744-P2

>  <fragmenstein_runtime>  (712) 
12.507335424423218

>  <fragmenstein_outcome>  (712) 
too moved

>  <fragmenstein_mode>  (712) 
expansion

>  <fragmenstein_error>  (712) 


$$$$
C38744-P59
     RDKit          3D

 41 43  0  0  0  0  0  0  0  0999 V2000
   -8.6415  -20.0615   21.2208 C   0  0  0  0  0  0  0  0  0  0  0  0
   -9.0466  -18.8039   20.6806 O   0  0  0  0  0  0  0  0  0  0  0  0
   -8.8389  -18.6582   19.3475 C   0  0  0  0  0  0  0  0  0  0  0  0
   -8.4252  -19.5408   18.6154 O   0  0  0  0  0  0  0  0  0  0  0  0
   -9.2328  -17.2986   18.9095 C   0  0  0  0  0  0  0  0  0  0  0  0
   -9.6656  -16.9788   17.6052 C   0  0  0  0  0  0  0  0  0  0  0  0
  -10.0790  -15.6932   17.2406 C   0  0  0  0  0  0  0  0  0  0  0  0
  -10.1097  -14.6703   18.1912 C   0  0  0  0  0  0  0  0  0  0  0  0
   -9.6891  -14.9622   19.4987 C   0  0  0  0  0  0  0  0  0  0  0  0
   -9.6490  -14.1903   20.6425 N   0  0  0  0  0  0  0  0  0  0  0  0
   -9.0671  -14.9492   21.5460 C   0  0  0  0  0  0  0  0  0  0  0  0
   -8.6258  -14.7373   22.8160 N   0  0  0  0  0  0  0  0  0  0  0  0
   -9.1111  -13.6829   23.7880 C   0  0  0  0  0  0  0  0  0  0  0  0
   -7.9676  -12.9876   24.7354 C   0  0  0  0  0  0  0  0  0  0  0  0
   -7.2406  -12.0199   23.8314 C   0  0  0  0  0  0  0  0  0  0  0  0
   -6.9574  -14.0205   25.2683 C   0  0  0  0  0  0  0  0  0  0  0  0
   -8.3850  -12.2085   25.9364 N   0  0  0  0  0  0  0  0  0  0  0  0
   -9.5134  -12.3235   26.6987 C   0  0  0  0  0  0  0  0  0  0  0  0
   -9.3052  -11.5783   27.8415 C   0  0  0  0  0  0  0  0  0  0  0  0
   -8.0248  -11.0346   27.6912 C   0  0  0  0  0  0  0  0  0  0  0  0
   -7.4659  -11.3987   26.5381 N   0  0  0  0  0  0  0  0  0  0  0  0
   -8.7983  -16.2154   21.0861 O   0  0  0  0  0  0  0  0  0  0  0  0
   -9.2338  -16.2323   19.7929 C   0  0  0  0  0  0  0  0  0  0  0  0
   -9.2611  -20.8677   20.8180 H   0  0  0  0  0  0  0  0  0  0  0  0
   -8.7809  -20.0252   22.3047 H   0  0  0  0  0  0  0  0  0  0  0  0
   -7.5827  -20.2474   21.0145 H   0  0  0  0  0  0  0  0  0  0  0  0
   -9.7436  -17.7310   16.8379 H   0  0  0  0  0  0  0  0  0  0  0  0
  -10.4091  -15.4930   16.2228 H   0  0  0  0  0  0  0  0  0  0  0  0
  -10.4518  -13.6712   17.9412 H   0  0  0  0  0  0  0  0  0  0  0  0
   -8.2893  -15.5760   23.2748 H   0  0  0  0  0  0  0  0  0  0  0  0
   -9.6495  -12.8960   23.2452 H   0  0  0  0  0  0  0  0  0  0  0  0
   -9.8402  -14.1765   24.4401 H   0  0  0  0  0  0  0  0  0  0  0  0
   -7.0304  -12.4698   22.8625 H   0  0  0  0  0  0  0  0  0  0  0  0
   -6.2919  -11.7610   24.2805 H   0  0  0  0  0  0  0  0  0  0  0  0
   -7.8417  -11.1301   23.6513 H   0  0  0  0  0  0  0  0  0  0  0  0
   -6.1535  -13.5697   25.8620 H   0  0  0  0  0  0  0  0  0  0  0  0
   -7.4603  -14.7581   25.9045 H   0  0  0  0  0  0  0  0  0  0  0  0
   -6.4741  -14.5643   24.4493 H   0  0  0  0  0  0  0  0  0  0  0  0
  -10.3519  -12.9312   26.3924 H   0  0  0  0  0  0  0  0  0  0  0  0
   -9.9900  -11.4517   28.6669 H   0  0  0  0  0  0  0  0  0  0  0  0
   -7.4912  -10.3816   28.3656 H   0  0  0  0  0  0  0  0  0  0  0  0
  1  2  1  0
  2  3  1  0
  3  4  2  0
  3  5  1  0
  5  6  2  0
  6  7  1  0
  7  8  2  0
  8  9  1  0
  9 10  1  0
 10 11  2  0
 11 12  1  0
 12 13  1  0
 13 14  1  0
 14 15  1  0
 14 16  1  0
 14 17  1  0
 17 18  1  0
 18 19  2  0
 19 20  1  0
 20 21  2  0
 11 22  1  0
 22 23  1  0
 23  5  1  0
 23  9  2  0
 21 17  1  0
  1 24  1  0
  1 25  1  0
  1 26  1  0
  6 27  1  0
  7 28  1  0
  8 29  1  0
 12 30  1  0
 13 31  1  0
 13 32  1  0
 15 33  1  0
 15 34  1  0
 15 35  1  0
 16 36  1  0
 16 37  1  0
 16 38  1  0
 18 39  1  0
 19 40  1  0
 20 41  1  0
M  END
>  <Energy>  (713) 
14.876889871069771

>  <compound_id>  (713) 
38744

>  <target_id>  (713) 
1

>  <reference_id>  (713) 
59

>  <inspiration_ids>  (713) 
[2, 59]

>  <energy_score>  (713) 
-29.33494704530287

>  <distance_score>  (713) 
14.165277595352523

>  <path>  (713) 
/opt/xchem-fragalysis-2/maxwin/BulkDock/SCRATCH/511021/C38744-P59/C38744-P59.minimised.mol

>  <scratch_subdir>  (713) 
/opt/xchem-fragalysis-2/maxwin/BulkDock/SCRATCH/511021/C38744-P59

>  <fragmenstein_runtime>  (713) 
14.181396007537842

>  <fragmenstein_outcome>  (713) 
too moved

>  <fragmenstein_mode>  (713) 
expansion

>  <fragmenstein_error>  (713) 


$$$$
C52789-P2
     RDKit          3D

 37 39  0  0  0  0  0  0  0  0999 V2000
   -1.4629   -8.5603   19.5000 C   0  0  0  0  0  0  0  0  0  0  0  0
   -1.6992   -9.5725   20.6504 C   0  0  0  0  0  0  0  0  0  0  0  0
   -0.3970   -9.8574   21.5572 C   0  0  0  0  0  0  0  0  0  0  0  0
   -2.3277  -11.0991   19.9009 C   0  0  0  0  0  0  0  0  0  0  0  0
   -2.2217  -11.5332   18.2811 N   0  0  0  0  0  0  0  0  0  0  0  0
   -2.1325  -12.8579   17.7302 C   0  0  0  0  0  0  0  0  0  0  0  0
   -2.4347  -13.5513   16.6364 N   0  0  0  0  0  0  0  0  0  0  0  0
   -2.4821  -14.9077   16.8662 C   0  0  0  0  0  0  0  0  0  0  0  0
   -3.3931  -16.1178   16.4878 C   0  0  0  0  0  0  0  0  0  0  0  0
   -3.6063  -17.2127   17.4252 C   0  0  0  0  0  0  0  0  0  0  0  0
   -4.3159  -18.2810   17.0442 F   0  0  0  0  0  0  0  0  0  0  0  0
   -3.0284  -17.2499   18.7263 C   0  0  0  0  0  0  0  0  0  0  0  0
   -2.1633  -16.1889   19.1797 C   0  0  0  0  0  0  0  0  0  0  0  0
   -1.8659  -15.0365   18.1707 C   0  0  0  0  0  0  0  0  0  0  0  0
   -1.8194  -13.7908   18.5524 O   0  0  0  0  0  0  0  0  0  0  0  0
   -2.3152   -8.7136   21.8871 C   0  0  0  0  0  0  0  0  0  0  0  0
   -1.6439   -7.5307   22.2703 C   0  0  0  0  0  0  0  0  0  0  0  0
   -1.6742   -7.0926   23.5936 C   0  0  0  0  0  0  0  0  0  0  0  0
   -2.4307   -7.6424   24.5550 N   0  0  0  0  0  0  0  0  0  0  0  0
   -3.1920   -8.6732   24.1562 C   0  0  0  0  0  0  0  0  0  0  0  0
   -3.1432   -9.2292   22.8758 C   0  0  0  0  0  0  0  0  0  0  0  0
   -0.4744   -8.0906   19.5622 H   0  0  0  0  0  0  0  0  0  0  0  0
   -2.1891   -7.7496   19.5076 H   0  0  0  0  0  0  0  0  0  0  0  0
   -1.5429   -9.0206   18.5133 H   0  0  0  0  0  0  0  0  0  0  0  0
    0.1924   -8.9464   21.7292 H   0  0  0  0  0  0  0  0  0  0  0  0
    0.3787  -10.5097   21.2256 H   0  0  0  0  0  0  0  0  0  0  0  0
   -0.6585  -10.2741   22.5390 H   0  0  0  0  0  0  0  0  0  0  0  0
   -3.3987  -11.1086   20.1051 H   0  0  0  0  0  0  0  0  0  0  0  0
   -1.8664  -11.9175   20.4442 H   0  0  0  0  0  0  0  0  0  0  0  0
   -2.7626  -10.8875   17.7197 H   0  0  0  0  0  0  0  0  0  0  0  0
   -3.7299  -16.2918   15.4799 H   0  0  0  0  0  0  0  0  0  0  0  0
   -3.2601  -18.0823   19.3843 H   0  0  0  0  0  0  0  0  0  0  0  0
   -1.8252  -16.1066   20.2027 H   0  0  0  0  0  0  0  0  0  0  0  0
   -0.9322   -7.0590   21.5994 H   0  0  0  0  0  0  0  0  0  0  0  0
   -1.0245   -6.2906   23.9202 H   0  0  0  0  0  0  0  0  0  0  0  0
   -3.8342   -9.1086   24.9166 H   0  0  0  0  0  0  0  0  0  0  0  0
   -3.7222  -10.1040   22.6927 H   0  0  0  0  0  0  0  0  0  0  0  0
  1  2  1  0
  2  3  1  0
  2  4  1  0
  4  5  1  0
  5  6  1  0
  6  7  2  0
  7  8  1  0
  8  9  2  0
  9 10  1  0
 10 11  1  0
 10 12  2  0
 12 13  1  0
 13 14  2  0
 14 15  1  0
  2 16  1  0
 16 17  2  0
 17 18  1  0
 18 19  2  0
 19 20  1  0
 20 21  2  0
 15  6  1  0
 21 16  1  0
 14  8  1  0
  1 22  1  0
  1 23  1  0
  1 24  1  0
  3 25  1  0
  3 26  1  0
  3 27  1  0
  4 28  1  0
  4 29  1  0
  5 30  1  0
  9 31  1  0
 12 32  1  0
 13 33  1  0
 17 34  1  0
 18 35  1  0
 20 36  1  0
 21 37  1  0
M  END
>  <Energy>  (714) 
169.63841367097646

>  <compound_id>  (714) 
52789

>  <target_id>  (714) 
1

>  <reference_id>  (714) 
2

>  <inspiration_ids>  (714) 
[2, 59]

>  <energy_score>  (714) 
120.11830918225098

>  <distance_score>  (714) 
12.812942271950098

>  <path>  (714) 
/opt/xchem-fragalysis-2/maxwin/BulkDock/SCRATCH/511021/C52789-P2/C52789-P2.minimised.mol

>  <scratch_subdir>  (714) 
/opt/xchem-fragalysis-2/maxwin/BulkDock/SCRATCH/511021/C52789-P2

>  <fragmenstein_runtime>  (714) 
9.457921266555786

>  <fragmenstein_outcome>  (714) 
too moved

>  <fragmenstein_mode>  (714) 
expansion

>  <fragmenstein_error>  (714) 


$$$$
C52789-P59
     RDKit          3D

 37 39  0  0  0  0  0  0  0  0999 V2000
  -10.7472   -7.0089   15.3912 C   0  0  0  0  0  0  0  0  0  0  0  0
   -9.2307   -6.7374   15.1614 C   0  0  0  0  0  0  0  0  0  0  0  0
   -9.1979   -5.5801   14.1182 C   0  0  0  0  0  0  0  0  0  0  0  0
   -8.5945   -8.0366   14.3970 C   0  0  0  0  0  0  0  0  0  0  0  0
   -9.4533   -8.7631   13.3998 N   0  0  0  0  0  0  0  0  0  0  0  0
   -9.6847  -10.1010   13.3602 C   0  0  0  0  0  0  0  0  0  0  0  0
   -9.1810  -11.0948   14.0579 N   0  0  0  0  0  0  0  0  0  0  0  0
   -9.9910  -12.1735   13.7796 C   0  0  0  0  0  0  0  0  0  0  0  0
  -10.0740  -13.4477   14.3586 C   0  0  0  0  0  0  0  0  0  0  0  0
  -11.1391  -14.2601   13.9866 C   0  0  0  0  0  0  0  0  0  0  0  0
  -11.2922  -15.4439   14.5950 F   0  0  0  0  0  0  0  0  0  0  0  0
  -12.0785  -13.8362   13.0517 C   0  0  0  0  0  0  0  0  0  0  0  0
  -11.9530  -12.6130   12.3840 C   0  0  0  0  0  0  0  0  0  0  0  0
  -10.9113  -11.8093   12.8167 C   0  0  0  0  0  0  0  0  0  0  0  0
  -10.6693  -10.5054   12.4826 O   0  0  0  0  0  0  0  0  0  0  0  0
   -8.5737   -6.2026   16.5134 C   0  0  0  0  0  0  0  0  0  0  0  0
   -9.1448   -6.4721   17.7718 C   0  0  0  0  0  0  0  0  0  0  0  0
   -8.7146   -5.7819   18.9203 C   0  0  0  0  0  0  0  0  0  0  0  0
   -7.7318   -4.8599   18.9382 N   0  0  0  0  0  0  0  0  0  0  0  0
   -7.1503   -4.6312   17.7468 C   0  0  0  0  0  0  0  0  0  0  0  0
   -7.5217   -5.2638   16.5470 C   0  0  0  0  0  0  0  0  0  0  0  0
  -10.9215   -7.8976   16.0037 H   0  0  0  0  0  0  0  0  0  0  0  0
  -11.2351   -6.1592   15.8846 H   0  0  0  0  0  0  0  0  0  0  0  0
  -11.2809   -7.1666   14.4470 H   0  0  0  0  0  0  0  0  0  0  0  0
   -8.1769   -5.3553   13.7911 H   0  0  0  0  0  0  0  0  0  0  0  0
   -9.7668   -5.8373   13.2171 H   0  0  0  0  0  0  0  0  0  0  0  0
   -9.6310   -4.6591   14.5266 H   0  0  0  0  0  0  0  0  0  0  0  0
   -8.1812   -8.7364   15.1152 H   0  0  0  0  0  0  0  0  0  0  0  0
   -7.7365   -7.6704   13.8235 H   0  0  0  0  0  0  0  0  0  0  0  0
   -9.9792   -8.1842   12.7573 H   0  0  0  0  0  0  0  0  0  0  0  0
   -9.4019  -13.7686   15.1424 H   0  0  0  0  0  0  0  0  0  0  0  0
  -12.9294  -14.4661   12.8155 H   0  0  0  0  0  0  0  0  0  0  0  0
  -12.6756  -12.2812   11.6505 H   0  0  0  0  0  0  0  0  0  0  0  0
   -9.9600   -7.1783   17.8918 H   0  0  0  0  0  0  0  0  0  0  0  0
   -9.1790   -5.9786   19.8834 H   0  0  0  0  0  0  0  0  0  0  0  0
   -6.3548   -3.8909   17.7578 H   0  0  0  0  0  0  0  0  0  0  0  0
   -7.0097   -4.9621   15.6395 H   0  0  0  0  0  0  0  0  0  0  0  0
  1  2  1  0
  2  3  1  0
  2  4  1  0
  4  5  1  0
  5  6  1  0
  6  7  2  0
  7  8  1  0
  8  9  2  0
  9 10  1  0
 10 11  1  0
 10 12  2  0
 12 13  1  0
 13 14  2  0
 14 15  1  0
  2 16  1  0
 16 17  2  0
 17 18  1  0
 18 19  2  0
 19 20  1  0
 20 21  2  0
 15  6  1  0
 21 16  1  0
 14  8  1  0
  1 22  1  0
  1 23  1  0
  1 24  1  0
  3 25  1  0
  3 26  1  0
  3 27  1  0
  4 28  1  0
  4 29  1  0
  5 30  1  0
  9 31  1  0
 12 32  1  0
 13 33  1  0
 17 34  1  0
 18 35  1  0
 20 36  1  0
 21 37  1  0
M  END
>  <Energy>  (715) 
22.482156392741135

>  <compound_id>  (715) 
52789

>  <target_id>  (715) 
1

>  <reference_id>  (715) 
59

>  <inspiration_ids>  (715) 
[2, 59]

>  <energy_score>  (715) 
-27.037948095984433

>  <distance_score>  (715) 
13.549628012465883

>  <path>  (715) 
/opt/xchem-fragalysis-2/maxwin/BulkDock/SCRATCH/511021/C52789-P59/C52789-P59.minimised.mol

>  <scratch_subdir>  (715) 
/opt/xchem-fragalysis-2/maxwin/BulkDock/SCRATCH/511021/C52789-P59

>  <fragmenstein_runtime>  (715) 
11.404767274856567

>  <fragmenstein_outcome>  (715) 
too moved

>  <fragmenstein_mode>  (715) 
expansion

>  <fragmenstein_error>  (715) 


$$$$
C52791-P2
     RDKit          3D

 40 42  0  0  0  0  0  0  0  0999 V2000
   -5.9566  -16.4907   13.7340 C   0  0  0  0  0  0  0  0  0  0  0  0
   -4.9905  -16.5948   14.9641 C   0  0  0  0  0  0  0  0  0  0  0  0
   -3.6958  -17.2284   15.0849 C   0  0  0  0  0  0  0  0  0  0  0  0
   -3.1960  -17.6251   16.3101 C   0  0  0  0  0  0  0  0  0  0  0  0
   -3.8974  -17.2963   17.4469 C   0  0  0  0  0  0  0  0  0  0  0  0
   -4.9240  -16.3716   17.2204 C   0  0  0  0  0  0  0  0  0  0  0  0
   -4.9322  -15.0423   17.4989 N   0  0  0  0  0  0  0  0  0  0  0  0
   -5.5619  -13.8038   17.1265 C   0  0  0  0  0  0  0  0  0  0  0  0
   -5.4103  -12.2300   17.8522 N   0  0  0  0  0  0  0  0  0  0  0  0
   -3.7998  -11.7922   18.7362 C   0  0  0  0  0  0  0  0  0  0  0  0
   -3.0757  -10.7805   20.0379 C   0  0  0  0  0  0  0  0  0  0  0  0
   -2.6994   -9.4879   19.2793 C   0  0  0  0  0  0  0  0  0  0  0  0
   -3.8945  -11.1023   21.3502 C   0  0  0  0  0  0  0  0  0  0  0  0
   -1.8006  -10.8316   21.0284 C   0  0  0  0  0  0  0  0  0  0  0  0
   -1.4954   -9.6641   21.8247 C   0  0  0  0  0  0  0  0  0  0  0  0
   -0.5677   -9.7005   22.8572 C   0  0  0  0  0  0  0  0  0  0  0  0
    0.0857  -10.8205   23.1814 N   0  0  0  0  0  0  0  0  0  0  0  0
   -0.2073  -11.9288   22.4518 C   0  0  0  0  0  0  0  0  0  0  0  0
   -1.1160  -11.9922   21.3856 C   0  0  0  0  0  0  0  0  0  0  0  0
   -6.7099  -14.8410   16.4395 O   0  0  0  0  0  0  0  0  0  0  0  0
   -5.7092  -16.1775   16.1652 C   0  0  0  0  0  0  0  0  0  0  0  0
   -6.3134  -17.3995   13.1924 H   0  0  0  0  0  0  0  0  0  0  0  0
   -5.5775  -15.7467   13.0121 H   0  0  0  0  0  0  0  0  0  0  0  0
   -6.9292  -16.1637   14.1729 H   0  0  0  0  0  0  0  0  0  0  0  0
   -3.1156  -17.5413   14.2279 H   0  0  0  0  0  0  0  0  0  0  0  0
   -2.2508  -18.1581   16.3673 H   0  0  0  0  0  0  0  0  0  0  0  0
   -3.4145  -17.3903   18.4139 H   0  0  0  0  0  0  0  0  0  0  0  0
   -6.1727  -12.2586   18.5316 H   0  0  0  0  0  0  0  0  0  0  0  0
   -2.9620  -12.1711   18.1431 H   0  0  0  0  0  0  0  0  0  0  0  0
   -4.1356  -12.3748   19.5525 H   0  0  0  0  0  0  0  0  0  0  0  0
   -3.1389   -9.3887   18.2846 H   0  0  0  0  0  0  0  0  0  0  0  0
   -2.8440   -8.5825   19.8597 H   0  0  0  0  0  0  0  0  0  0  0  0
   -1.6592   -9.4599   18.9878 H   0  0  0  0  0  0  0  0  0  0  0  0
   -3.5180  -11.9702   21.9156 H   0  0  0  0  0  0  0  0  0  0  0  0
   -3.9393  -10.3259   22.1263 H   0  0  0  0  0  0  0  0  0  0  0  0
   -4.8759  -11.4399   21.0962 H   0  0  0  0  0  0  0  0  0  0  0  0
   -2.0303   -8.7289   21.6941 H   0  0  0  0  0  0  0  0  0  0  0  0
   -0.3408   -8.8282   23.4622 H   0  0  0  0  0  0  0  0  0  0  0  0
    0.3347  -12.8231   22.7542 H   0  0  0  0  0  0  0  0  0  0  0  0
   -1.2967  -12.9358   20.8815 H   0  0  0  0  0  0  0  0  0  0  0  0
  1  2  1  0
  2  3  2  0
  3  4  1  0
  4  5  2  0
  5  6  1  0
  6  7  1  0
  7  8  2  0
  8  9  1  0
  9 10  1  0
 10 11  1  0
 11 12  1  0
 11 13  1  0
 11 14  1  0
 14 15  2  0
 15 16  1  0
 16 17  2  0
 17 18  1  0
 18 19  2  0
  8 20  1  0
 20 21  1  0
 21  2  1  0
 21  6  2  0
 19 14  1  0
  1 22  1  0
  1 23  1  0
  1 24  1  0
  3 25  1  0
  4 26  1  0
  5 27  1  0
  9 28  1  0
 10 29  1  0
 10 30  1  0
 12 31  1  0
 12 32  1  0
 12 33  1  0
 13 34  1  0
 13 35  1  0
 13 36  1  0
 15 37  1  0
 16 38  1  0
 18 39  1  0
 19 40  1  0
M  END
>  <Energy>  (716) 
461.1724461989611

>  <compound_id>  (716) 
52791

>  <target_id>  (716) 
1

>  <reference_id>  (716) 
2

>  <inspiration_ids>  (716) 
[2, 59]

>  <energy_score>  (716) 
402.78674385231716

>  <distance_score>  (716) 
12.67312482410915

>  <path>  (716) 
/opt/xchem-fragalysis-2/maxwin/BulkDock/SCRATCH/511021/C52791-P2/C52791-P2.minimised.mol

>  <scratch_subdir>  (716) 
/opt/xchem-fragalysis-2/maxwin/BulkDock/SCRATCH/511021/C52791-P2

>  <fragmenstein_runtime>  (716) 
8.92490553855896

>  <fragmenstein_outcome>  (716) 
too moved

>  <fragmenstein_mode>  (716) 
expansion

>  <fragmenstein_error>  (716) 


$$$$
C52791-P59
     RDKit          3D

 40 42  0  0  0  0  0  0  0  0999 V2000
  -15.2521  -15.0725   15.0112 C   0  0  0  0  0  0  0  0  0  0  0  0
  -14.0158  -14.2854   14.7269 C   0  0  0  0  0  0  0  0  0  0  0  0
  -13.4967  -14.1345   13.4242 C   0  0  0  0  0  0  0  0  0  0  0  0
  -12.3306  -13.4077   13.1565 C   0  0  0  0  0  0  0  0  0  0  0  0
  -11.6534  -12.7433   14.1744 C   0  0  0  0  0  0  0  0  0  0  0  0
  -12.1956  -12.8100   15.4626 C   0  0  0  0  0  0  0  0  0  0  0  0
  -11.8160  -12.1791   16.6232 N   0  0  0  0  0  0  0  0  0  0  0  0
  -12.6869  -12.5509   17.5265 C   0  0  0  0  0  0  0  0  0  0  0  0
  -12.8853  -12.1118   18.7996 N   0  0  0  0  0  0  0  0  0  0  0  0
  -11.9578  -11.2114   19.5767 C   0  0  0  0  0  0  0  0  0  0  0  0
  -12.6460  -10.2316   20.7255 C   0  0  0  0  0  0  0  0  0  0  0  0
  -13.3325  -11.1936   21.7364 C   0  0  0  0  0  0  0  0  0  0  0  0
  -13.8025   -9.4468   20.0532 C   0  0  0  0  0  0  0  0  0  0  0  0
  -11.7428   -9.1787   21.5209 C   0  0  0  0  0  0  0  0  0  0  0  0
  -11.3143   -9.3887   22.8508 C   0  0  0  0  0  0  0  0  0  0  0  0
  -10.5088   -8.4389   23.5064 C   0  0  0  0  0  0  0  0  0  0  0  0
  -10.0990   -7.2791   22.9531 N   0  0  0  0  0  0  0  0  0  0  0  0
  -10.5559   -7.0439   21.7065 C   0  0  0  0  0  0  0  0  0  0  0  0
  -11.3360   -7.9475   20.9648 C   0  0  0  0  0  0  0  0  0  0  0  0
  -13.5919  -13.4797   17.0477 O   0  0  0  0  0  0  0  0  0  0  0  0
  -13.3063  -13.5918   15.7063 C   0  0  0  0  0  0  0  0  0  0  0  0
  -15.8440  -14.5913   15.7967 H   0  0  0  0  0  0  0  0  0  0  0  0
  -15.8859  -15.1477   14.1218 H   0  0  0  0  0  0  0  0  0  0  0  0
  -14.9899  -16.0810   15.3432 H   0  0  0  0  0  0  0  0  0  0  0  0
  -14.0138  -14.5823   12.5758 H   0  0  0  0  0  0  0  0  0  0  0  0
  -11.9673  -13.3237   12.1368 H   0  0  0  0  0  0  0  0  0  0  0  0
  -10.7700  -12.1488   13.9751 H   0  0  0  0  0  0  0  0  0  0  0  0
  -13.4938  -12.6952   19.3609 H   0  0  0  0  0  0  0  0  0  0  0  0
  -11.2418  -11.8680   20.0836 H   0  0  0  0  0  0  0  0  0  0  0  0
  -11.3841  -10.5869   18.8964 H   0  0  0  0  0  0  0  0  0  0  0  0
  -14.1012  -11.8088   21.2563 H   0  0  0  0  0  0  0  0  0  0  0  0
  -13.8321  -10.6435   22.5429 H   0  0  0  0  0  0  0  0  0  0  0  0
  -12.6074  -11.8805   22.1871 H   0  0  0  0  0  0  0  0  0  0  0  0
  -14.5428  -10.1198   19.6063 H   0  0  0  0  0  0  0  0  0  0  0  0
  -13.4475   -8.7881   19.2574 H   0  0  0  0  0  0  0  0  0  0  0  0
  -14.3327   -8.8220   20.7825 H   0  0  0  0  0  0  0  0  0  0  0  0
  -11.5665  -10.2905   23.4003 H   0  0  0  0  0  0  0  0  0  0  0  0
  -10.1673   -8.6150   24.5234 H   0  0  0  0  0  0  0  0  0  0  0  0
  -10.2622   -6.0891   21.2766 H   0  0  0  0  0  0  0  0  0  0  0  0
  -11.6232   -7.6685   19.9546 H   0  0  0  0  0  0  0  0  0  0  0  0
  1  2  1  0
  2  3  2  0
  3  4  1  0
  4  5  2  0
  5  6  1  0
  6  7  1  0
  7  8  2  0
  8  9  1  0
  9 10  1  0
 10 11  1  0
 11 12  1  0
 11 13  1  0
 11 14  1  0
 14 15  2  0
 15 16  1  0
 16 17  2  0
 17 18  1  0
 18 19  2  0
  8 20  1  0
 20 21  1  0
 21  2  1  0
 21  6  2  0
 19 14  1  0
  1 22  1  0
  1 23  1  0
  1 24  1  0
  3 25  1  0
  4 26  1  0
  5 27  1  0
  9 28  1  0
 10 29  1  0
 10 30  1  0
 12 31  1  0
 12 32  1  0
 12 33  1  0
 13 34  1  0
 13 35  1  0
 13 36  1  0
 15 37  1  0
 16 38  1  0
 18 39  1  0
 19 40  1  0
M  END
>  <Energy>  (717) 
30.610999638670982

>  <compound_id>  (717) 
52791

>  <target_id>  (717) 
1

>  <reference_id>  (717) 
59

>  <inspiration_ids>  (717) 
[2, 59]

>  <energy_score>  (717) 
-27.774702707975052

>  <distance_score>  (717) 
13.879492034026947

>  <path>  (717) 
/opt/xchem-fragalysis-2/maxwin/BulkDock/SCRATCH/511021/C52791-P59/C52791-P59.minimised.mol

>  <scratch_subdir>  (717) 
/opt/xchem-fragalysis-2/maxwin/BulkDock/SCRATCH/511021/C52791-P59

>  <fragmenstein_runtime>  (717) 
16.07320523262024

>  <fragmenstein_outcome>  (717) 
too moved

>  <fragmenstein_mode>  (717) 
expansion

>  <fragmenstein_error>  (717) 


$$$$
C52794-P2
     RDKit          3D

 41 44  0  0  0  0  0  0  0  0999 V2000
   -7.6635  -20.4260   10.0864 C   0  0  0  0  0  0  0  0  0  0  0  0
   -7.7712  -21.2957   11.0840 C   0  0  0  0  0  0  0  0  0  0  0  0
   -7.1938  -20.7177   12.2388 C   0  0  0  0  0  0  0  0  0  0  0  0
   -6.7495  -19.1187   12.8201 C   0  0  0  0  0  0  0  0  0  0  0  0
   -7.7514  -17.6225   13.2133 O   0  0  0  0  0  0  0  0  0  0  0  0
   -6.6966  -16.3865   13.9166 C   0  0  0  0  0  0  0  0  0  0  0  0
   -7.3042  -14.5188   14.4507 C   0  0  0  0  0  0  0  0  0  0  0  0
   -6.7927  -14.1660   16.4350 C   0  0  0  0  0  0  0  0  0  0  0  0
   -5.5646  -12.7160   17.3722 C   0  0  0  0  0  0  0  0  0  0  0  0
   -5.5707  -10.9394   16.3199 C   0  0  0  0  0  0  0  0  0  0  0  0
   -4.0763  -10.1966   17.0262 N   0  0  0  0  0  0  0  0  0  0  0  0
   -3.1600  -10.7912   18.1314 C   0  0  0  0  0  0  0  0  0  0  0  0
   -2.5800   -9.8961   19.2494 C   0  0  0  0  0  0  0  0  0  0  0  0
   -2.3947  -10.1118   20.6050 C   0  0  0  0  0  0  0  0  0  0  0  0
   -1.8650   -9.0220   21.2473 N   0  0  0  0  0  0  0  0  0  0  0  0
   -1.6395   -8.2101   20.2476 C   0  0  0  0  0  0  0  0  0  0  0  0
   -2.0722   -8.6473   19.0195 O   0  0  0  0  0  0  0  0  0  0  0  0
   -5.7219  -10.9942   14.1488 C   0  0  0  0  0  0  0  0  0  0  0  0
   -6.8547  -12.6749   13.4392 C   0  0  0  0  0  0  0  0  0  0  0  0
   -5.9717  -16.8682   12.7970 N   0  0  0  0  0  0  0  0  0  0  0  0
   -6.3564  -18.3267   11.9211 C   0  0  0  0  0  0  0  0  0  0  0  0
   -7.0250  -19.2134   10.5886 C   0  0  0  0  0  0  0  0  0  0  0  0
   -7.9367  -20.5929    9.0622 H   0  0  0  0  0  0  0  0  0  0  0  0
   -8.0317  -22.3352   10.9825 H   0  0  0  0  0  0  0  0  0  0  0  0
   -6.9201  -21.5811   12.8633 H   0  0  0  0  0  0  0  0  0  0  0  0
   -8.3913  -14.5583   14.5782 H   0  0  0  0  0  0  0  0  0  0  0  0
   -7.6546  -13.7209   16.9376 H   0  0  0  0  0  0  0  0  0  0  0  0
   -6.6274  -15.1980   16.7283 H   0  0  0  0  0  0  0  0  0  0  0  0
   -4.9230  -13.4323   16.9493 H   0  0  0  0  0  0  0  0  0  0  0  0
   -5.9703  -12.4679   18.3544 H   0  0  0  0  0  0  0  0  0  0  0  0
   -6.3927  -10.3252   16.6969 H   0  0  0  0  0  0  0  0  0  0  0  0
   -3.5606   -9.5863   16.3992 H   0  0  0  0  0  0  0  0  0  0  0  0
   -2.3212  -11.3359   17.7129 H   0  0  0  0  0  0  0  0  0  0  0  0
   -3.7290  -11.5539   18.6641 H   0  0  0  0  0  0  0  0  0  0  0  0
   -2.6542  -11.0021   21.1341 H   0  0  0  0  0  0  0  0  0  0  0  0
   -1.1581   -7.2465   20.2792 H   0  0  0  0  0  0  0  0  0  0  0  0
   -4.8875  -10.8048   13.5415 H   0  0  0  0  0  0  0  0  0  0  0  0
   -6.4262  -10.1804   13.9007 H   0  0  0  0  0  0  0  0  0  0  0  0
   -7.8789  -12.2596   13.3161 H   0  0  0  0  0  0  0  0  0  0  0  0
   -6.4274  -12.7978   12.4379 H   0  0  0  0  0  0  0  0  0  0  0  0
   -8.0616  -19.3247   11.1473 H   0  0  0  0  0  0  0  0  0  0  0  0
  1  2  2  0
  2  3  1  0
  3  4  2  0
  4  5  1  0
  5  6  1  0
  6  7  1  0
  7  8  1  0
  8  9  1  0
  9 10  1  0
 10 11  1  0
 11 12  1  0
 12 13  1  0
 13 14  2  0
 14 15  1  0
 15 16  2  0
 16 17  1  0
 10 18  1  0
 18 19  1  0
  6 20  2  0
 20 21  1  0
 21 22  2  0
 22  1  1  0
 21  4  1  0
 19  7  1  0
 17 13  1  0
  1 23  1  0
  2 24  1  0
  3 25  1  0
  7 26  1  0
  8 27  1  0
  8 28  1  0
  9 29  1  0
  9 30  1  0
 10 31  1  0
 11 32  1  0
 12 33  1  0
 12 34  1  0
 14 35  1  0
 16 36  1  0
 18 37  1  0
 18 38  1  0
 19 39  1  0
 19 40  1  0
 22 41  1  0
M  END
>  <Energy>  (718) 
1155.2381177217883

>  <compound_id>  (718) 
52794

>  <target_id>  (718) 
1

>  <reference_id>  (718) 
2

>  <inspiration_ids>  (718) 
[2, 59]

>  <energy_score>  (718) 
1080.977797580072

>  <distance_score>  (718) 
10.107730745967743

>  <path>  (718) 
/opt/xchem-fragalysis-2/maxwin/BulkDock/SCRATCH/511021/C52794-P2/C52794-P2.minimised.mol

>  <scratch_subdir>  (718) 
/opt/xchem-fragalysis-2/maxwin/BulkDock/SCRATCH/511021/C52794-P2

>  <fragmenstein_runtime>  (718) 
14.848263025283813

>  <fragmenstein_outcome>  (718) 
too moved

>  <fragmenstein_mode>  (718) 
expansion

>  <fragmenstein_error>  (718) 


$$$$
C52794-P59
     RDKit          3D

 41 44  0  0  0  0  0  0  0  0999 V2000
   -8.7083  -19.3085   12.0751 C   0  0  0  0  0  0  0  0  0  0  0  0
   -7.2958  -19.6501   11.9651 C   0  0  0  0  0  0  0  0  0  0  0  0
   -6.3118  -18.6989   12.5380 C   0  0  0  0  0  0  0  0  0  0  0  0
   -6.6790  -17.4399   13.4428 C   0  0  0  0  0  0  0  0  0  0  0  0
   -5.9948  -16.4402   14.3278 O   0  0  0  0  0  0  0  0  0  0  0  0
   -7.2110  -15.7382   15.4072 C   0  0  0  0  0  0  0  0  0  0  0  0
   -7.0682  -14.3755   16.7120 C   0  0  0  0  0  0  0  0  0  0  0  0
   -5.8035  -13.7521   17.2807 C   0  0  0  0  0  0  0  0  0  0  0  0
   -5.7845  -12.6380   18.6168 C   0  0  0  0  0  0  0  0  0  0  0  0
   -5.1312  -11.4861   18.1037 C   0  0  0  0  0  0  0  0  0  0  0  0
   -3.9780  -11.1727   19.2162 N   0  0  0  0  0  0  0  0  0  0  0  0
   -3.4609   -9.8405   20.2862 C   0  0  0  0  0  0  0  0  0  0  0  0
   -3.6705   -8.9345   22.0683 C   0  0  0  0  0  0  0  0  0  0  0  0
   -3.3566   -9.0437   23.4525 C   0  0  0  0  0  0  0  0  0  0  0  0
   -3.2564   -7.8202   24.0915 N   0  0  0  0  0  0  0  0  0  0  0  0
   -3.4626   -6.9681   23.1239 C   0  0  0  0  0  0  0  0  0  0  0  0
   -3.6976   -7.5223   21.9189 O   0  0  0  0  0  0  0  0  0  0  0  0
   -6.8766  -11.3228   17.7613 C   0  0  0  0  0  0  0  0  0  0  0  0
   -7.9059  -12.8267   17.4396 C   0  0  0  0  0  0  0  0  0  0  0  0
   -8.1439  -15.9082   14.5139 N   0  0  0  0  0  0  0  0  0  0  0  0
   -8.0639  -17.0683   13.6316 C   0  0  0  0  0  0  0  0  0  0  0  0
   -9.0713  -17.8351   12.7409 C   0  0  0  0  0  0  0  0  0  0  0  0
   -9.4508  -20.0022   11.7568 H   0  0  0  0  0  0  0  0  0  0  0  0
   -6.9429  -20.5808   11.5592 H   0  0  0  0  0  0  0  0  0  0  0  0
   -5.3041  -19.1207   12.5802 H   0  0  0  0  0  0  0  0  0  0  0  0
   -7.3708  -14.0748   15.7928 H   0  0  0  0  0  0  0  0  0  0  0  0
   -5.3612  -13.1329   16.6803 H   0  0  0  0  0  0  0  0  0  0  0  0
   -5.3367  -14.7434   17.4733 H   0  0  0  0  0  0  0  0  0  0  0  0
   -6.6927  -12.6082   19.2497 H   0  0  0  0  0  0  0  0  0  0  0  0
   -5.0907  -12.7617   19.4196 H   0  0  0  0  0  0  0  0  0  0  0  0
   -4.7477  -11.0397   17.2233 H   0  0  0  0  0  0  0  0  0  0  0  0
   -3.0988  -11.6570   19.0241 H   0  0  0  0  0  0  0  0  0  0  0  0
   -4.1581  -10.5270   20.8369 H   0  0  0  0  0  0  0  0  0  0  0  0
   -3.4087   -9.0314   19.5715 H   0  0  0  0  0  0  0  0  0  0  0  0
   -3.2007   -9.9278   24.0480 H   0  0  0  0  0  0  0  0  0  0  0  0
   -3.4543   -5.8890   23.1453 H   0  0  0  0  0  0  0  0  0  0  0  0
   -6.8310  -10.5934   16.9525 H   0  0  0  0  0  0  0  0  0  0  0  0
   -7.5217  -10.9608   18.5611 H   0  0  0  0  0  0  0  0  0  0  0  0
   -8.4131  -12.9943   18.3963 H   0  0  0  0  0  0  0  0  0  0  0  0
   -8.4855  -12.3345   16.6822 H   0  0  0  0  0  0  0  0  0  0  0  0
  -10.0914  -17.5376   12.9742 H   0  0  0  0  0  0  0  0  0  0  0  0
  1  2  2  0
  2  3  1  0
  3  4  2  0
  4  5  1  0
  5  6  1  0
  6  7  1  0
  7  8  1  0
  8  9  1  0
  9 10  1  0
 10 11  1  0
 11 12  1  0
 12 13  1  0
 13 14  2  0
 14 15  1  0
 15 16  2  0
 16 17  1  0
 10 18  1  0
 18 19  1  0
  6 20  2  0
 20 21  1  0
 21 22  2  0
 22  1  1  0
 21  4  1  0
 19  7  1  0
 17 13  1  0
  1 23  1  0
  2 24  1  0
  3 25  1  0
  7 26  1  0
  8 27  1  0
  8 28  1  0
  9 29  1  0
  9 30  1  0
 10 31  1  0
 11 32  1  0
 12 33  1  0
 12 34  1  0
 14 35  1  0
 16 36  1  0
 18 37  1  0
 18 38  1  0
 19 39  1  0
 19 40  1  0
 22 41  1  0
M  END
>  <Energy>  (719) 
739.15595264555702

>  <compound_id>  (719) 
52794

>  <target_id>  (719) 
1

>  <reference_id>  (719) 
59

>  <inspiration_ids>  (719) 
[2, 59]

>  <energy_score>  (719) 
664.8956325038422

>  <distance_score>  (719) 
9.654209287583859

>  <path>  (719) 
/opt/xchem-fragalysis-2/maxwin/BulkDock/SCRATCH/511021/C52794-P59/C52794-P59.minimised.mol

>  <scratch_subdir>  (719) 
/opt/xchem-fragalysis-2/maxwin/BulkDock/SCRATCH/511021/C52794-P59

>  <fragmenstein_runtime>  (719) 
16.55843710899353

>  <fragmenstein_outcome>  (719) 
too moved

>  <fragmenstein_mode>  (719) 
expansion

>  <fragmenstein_error>  (719) 


$$$$
C52796-P2
     RDKit          3D

 44 47  0  0  0  0  0  0  0  0999 V2000
   -7.7263  -19.9668   10.9523 C   0  0  0  0  0  0  0  0  0  0  0  0
   -7.1575  -20.1674   12.1127 C   0  0  0  0  0  0  0  0  0  0  0  0
   -6.3323  -18.9927   12.8465 C   0  0  0  0  0  0  0  0  0  0  0  0
   -6.3854  -17.6067   12.8716 C   0  0  0  0  0  0  0  0  0  0  0  0
   -5.8859  -16.3422   13.5671 O   0  0  0  0  0  0  0  0  0  0  0  0
   -5.6905  -14.8798   12.5955 C   0  0  0  0  0  0  0  0  0  0  0  0
   -6.4363  -12.9583   12.8549 C   0  0  0  0  0  0  0  0  0  0  0  0
   -8.0214  -12.4063   13.3013 C   0  0  0  0  0  0  0  0  0  0  0  0
   -8.2147  -10.9729   14.4090 C   0  0  0  0  0  0  0  0  0  0  0  0
   -6.7618  -10.0897   15.4869 C   0  0  0  0  0  0  0  0  0  0  0  0
   -5.5467  -10.5203   16.6991 N   0  0  0  0  0  0  0  0  0  0  0  0
   -3.9190   -9.8593   17.0507 C   0  0  0  0  0  0  0  0  0  0  0  0
   -2.9417  -10.2268   18.2805 C   0  0  0  0  0  0  0  0  0  0  0  0
   -2.6732  -11.4652   18.7713 C   0  0  0  0  0  0  0  0  0  0  0  0
   -2.2477  -11.6002   20.1045 C   0  0  0  0  0  0  0  0  0  0  0  0
   -2.0027  -10.6271   20.9934 N   0  0  0  0  0  0  0  0  0  0  0  0
   -2.0492   -9.4267   20.4454 C   0  0  0  0  0  0  0  0  0  0  0  0
   -2.4396   -9.2078   19.1106 C   0  0  0  0  0  0  0  0  0  0  0  0
   -6.1747  -10.0785   13.7813 C   0  0  0  0  0  0  0  0  0  0  0  0
   -5.6253  -11.3721   13.1506 C   0  0  0  0  0  0  0  0  0  0  0  0
   -6.0234  -15.6855   11.4161 N   0  0  0  0  0  0  0  0  0  0  0  0
   -6.4587  -17.4101   11.5804 C   0  0  0  0  0  0  0  0  0  0  0  0
   -6.8674  -18.9448   10.6376 C   0  0  0  0  0  0  0  0  0  0  0  0
   -8.0124  -20.7704   10.2913 H   0  0  0  0  0  0  0  0  0  0  0  0
   -6.9265  -21.2222   12.3163 H   0  0  0  0  0  0  0  0  0  0  0  0
   -5.2994  -19.3795   12.7389 H   0  0  0  0  0  0  0  0  0  0  0  0
   -6.5476  -12.8234   11.8342 H   0  0  0  0  0  0  0  0  0  0  0  0
   -8.6381  -13.1959   13.7464 H   0  0  0  0  0  0  0  0  0  0  0  0
   -8.5871  -12.1731   12.3955 H   0  0  0  0  0  0  0  0  0  0  0  0
   -8.8135  -10.1971   13.9135 H   0  0  0  0  0  0  0  0  0  0  0  0
   -8.8509  -11.5660   15.0344 H   0  0  0  0  0  0  0  0  0  0  0  0
   -7.1100   -9.2514   16.0604 H   0  0  0  0  0  0  0  0  0  0  0  0
   -5.9358  -11.0660   17.4569 H   0  0  0  0  0  0  0  0  0  0  0  0
   -4.0243   -8.8065   17.2913 H   0  0  0  0  0  0  0  0  0  0  0  0
   -3.3781   -9.8172   16.1381 H   0  0  0  0  0  0  0  0  0  0  0  0
   -2.7682  -12.3263   18.1391 H   0  0  0  0  0  0  0  0  0  0  0  0
   -2.0515  -12.5802   20.5063 H   0  0  0  0  0  0  0  0  0  0  0  0
   -1.7713   -8.6496   21.1378 H   0  0  0  0  0  0  0  0  0  0  0  0
   -2.4465   -8.2042   18.7437 H   0  0  0  0  0  0  0  0  0  0  0  0
   -5.4007   -9.3809   13.4240 H   0  0  0  0  0  0  0  0  0  0  0  0
   -7.0351   -9.5152   13.3888 H   0  0  0  0  0  0  0  0  0  0  0  0
   -4.8417  -11.2204   13.8268 H   0  0  0  0  0  0  0  0  0  0  0  0
   -4.8567  -11.5175   12.4020 H   0  0  0  0  0  0  0  0  0  0  0  0
   -6.0471  -19.6673   10.7242 H   0  0  0  0  0  0  0  0  0  0  0  0
  1  2  2  0
  2  3  1  0
  3  4  2  0
  4  5  1  0
  5  6  1  0
  6  7  1  0
  7  8  1  0
  8  9  1  0
  9 10  1  0
 10 11  1  0
 11 12  1  0
 12 13  1  0
 13 14  2  0
 14 15  1  0
 15 16  2  0
 16 17  1  0
 17 18  2  0
 10 19  1  0
 19 20  1  0
  6 21  2  0
 21 22  1  0
 22 23  2  0
 23  1  1  0
 22  4  1  0
 20  7  1  0
 18 13  1  0
  1 24  1  0
  2 25  1  0
  3 26  1  0
  7 27  1  0
  8 28  1  0
  8 29  1  0
  9 30  1  0
  9 31  1  0
 10 32  1  0
 11 33  1  0
 12 34  1  0
 12 35  1  0
 14 36  1  0
 15 37  1  0
 17 38  1  0
 18 39  1  0
 19 40  1  0
 19 41  1  0
 20 42  1  0
 20 43  1  0
 23 44  1  0
M  END
>  <Energy>  (720) 
884.98830152443031

>  <compound_id>  (720) 
52796

>  <target_id>  (720) 
1

>  <reference_id>  (720) 
2

>  <inspiration_ids>  (720) 
[2, 59]

>  <energy_score>  (720) 
808.5001332042726

>  <distance_score>  (720) 
11.263563366760847

>  <path>  (720) 
/opt/xchem-fragalysis-2/maxwin/BulkDock/SCRATCH/511021/C52796-P2/C52796-P2.minimised.mol

>  <scratch_subdir>  (720) 
/opt/xchem-fragalysis-2/maxwin/BulkDock/SCRATCH/511021/C52796-P2

>  <fragmenstein_runtime>  (720) 
19.060252904891968

>  <fragmenstein_outcome>  (720) 
too moved

>  <fragmenstein_mode>  (720) 
expansion

>  <fragmenstein_error>  (720) 


$$$$
C52796-P59
     RDKit          3D

 44 47  0  0  0  0  0  0  0  0999 V2000
   -3.7713  -21.3488   17.8497 C   0  0  0  0  0  0  0  0  0  0  0  0
   -4.8764  -20.9959   18.6322 C   0  0  0  0  0  0  0  0  0  0  0  0
   -5.0156  -19.7015   19.1603 C   0  0  0  0  0  0  0  0  0  0  0  0
   -3.9625  -18.8273   18.9121 C   0  0  0  0  0  0  0  0  0  0  0  0
   -3.8121  -17.5315   19.3448 O   0  0  0  0  0  0  0  0  0  0  0  0
   -2.5598  -17.1565   18.9178 C   0  0  0  0  0  0  0  0  0  0  0  0
   -1.9213  -15.6358   19.2517 C   0  0  0  0  0  0  0  0  0  0  0  0
   -1.9969  -14.1605   18.0804 C   0  0  0  0  0  0  0  0  0  0  0  0
   -2.1130  -12.4190   18.5639 C   0  0  0  0  0  0  0  0  0  0  0  0
   -0.8987  -11.9204   19.9163 C   0  0  0  0  0  0  0  0  0  0  0  0
    0.1507  -10.7619   21.0868 N   0  0  0  0  0  0  0  0  0  0  0  0
    0.8300  -10.9080   22.4626 C   0  0  0  0  0  0  0  0  0  0  0  0
    1.2392   -9.5904   23.1673 C   0  0  0  0  0  0  0  0  0  0  0  0
    1.2669   -9.5323   24.5691 C   0  0  0  0  0  0  0  0  0  0  0  0
    1.6886   -8.3654   25.2012 C   0  0  0  0  0  0  0  0  0  0  0  0
    2.0322   -7.2298   24.5565 N   0  0  0  0  0  0  0  0  0  0  0  0
    2.0171   -7.3008   23.2093 C   0  0  0  0  0  0  0  0  0  0  0  0
    1.6691   -8.4442   22.4843 C   0  0  0  0  0  0  0  0  0  0  0  0
   -1.8094  -13.3462   20.9743 C   0  0  0  0  0  0  0  0  0  0  0  0
   -2.0726  -15.2487   20.7505 C   0  0  0  0  0  0  0  0  0  0  0  0
   -1.9213  -18.1467   18.2934 N   0  0  0  0  0  0  0  0  0  0  0  0
   -2.8272  -19.1699   18.2057 C   0  0  0  0  0  0  0  0  0  0  0  0
   -2.7364  -20.4352   17.6121 C   0  0  0  0  0  0  0  0  0  0  0  0
   -3.7000  -22.3517   17.4305 H   0  0  0  0  0  0  0  0  0  0  0  0
   -5.6490  -21.7372   18.8202 H   0  0  0  0  0  0  0  0  0  0  0  0
   -5.8726  -19.4036   19.7509 H   0  0  0  0  0  0  0  0  0  0  0  0
   -0.8658  -15.9667   19.1831 H   0  0  0  0  0  0  0  0  0  0  0  0
   -2.7593  -14.2627   17.3061 H   0  0  0  0  0  0  0  0  0  0  0  0
   -1.0535  -14.1778   17.5133 H   0  0  0  0  0  0  0  0  0  0  0  0
   -1.8100  -11.8417   17.7167 H   0  0  0  0  0  0  0  0  0  0  0  0
   -3.1459  -12.1577   18.8089 H   0  0  0  0  0  0  0  0  0  0  0  0
   -1.2104  -10.9550   19.4078 H   0  0  0  0  0  0  0  0  0  0  0  0
    0.7225  -10.1750   20.4782 H   0  0  0  0  0  0  0  0  0  0  0  0
    1.7552  -11.4880   22.3915 H   0  0  0  0  0  0  0  0  0  0  0  0
    0.1620  -11.4557   23.1367 H   0  0  0  0  0  0  0  0  0  0  0  0
    0.9939  -10.3933   25.1712 H   0  0  0  0  0  0  0  0  0  0  0  0
    1.7725   -8.3308   26.2833 H   0  0  0  0  0  0  0  0  0  0  0  0
    2.3245   -6.3944   22.6941 H   0  0  0  0  0  0  0  0  0  0  0  0
    1.7179   -8.4174   21.4004 H   0  0  0  0  0  0  0  0  0  0  0  0
   -1.3986  -13.2961   21.9877 H   0  0  0  0  0  0  0  0  0  0  0  0
   -2.7929  -13.0535   20.7301 H   0  0  0  0  0  0  0  0  0  0  0  0
   -2.8728  -15.8893   21.1232 H   0  0  0  0  0  0  0  0  0  0  0  0
   -1.2838  -15.7154   21.3875 H   0  0  0  0  0  0  0  0  0  0  0  0
   -1.8608  -20.7163   17.0371 H   0  0  0  0  0  0  0  0  0  0  0  0
  1  2  2  0
  2  3  1  0
  3  4  2  0
  4  5  1  0
  5  6  1  0
  6  7  1  0
  7  8  1  0
  8  9  1  0
  9 10  1  0
 10 11  1  0
 11 12  1  0
 12 13  1  0
 13 14  2  0
 14 15  1  0
 15 16  2  0
 16 17  1  0
 17 18  2  0
 10 19  1  0
 19 20  1  0
  6 21  2  0
 21 22  1  0
 22 23  2  0
 23  1  1  0
 22  4  1  0
 20  7  1  0
 18 13  1  0
  1 24  1  0
  2 25  1  0
  3 26  1  0
  7 27  1  0
  8 28  1  0
  8 29  1  0
  9 30  1  0
  9 31  1  0
 10 32  1  0
 11 33  1  0
 12 34  1  0
 12 35  1  0
 14 36  1  0
 15 37  1  0
 17 38  1  0
 18 39  1  0
 19 40  1  0
 19 41  1  0
 20 42  1  0
 20 43  1  0
 23 44  1  0
M  END
>  <Energy>  (721) 
414.42008275489667

>  <compound_id>  (721) 
52796

>  <target_id>  (721) 
1

>  <reference_id>  (721) 
59

>  <inspiration_ids>  (721) 
[2, 59]

>  <energy_score>  (721) 
337.9319144347445

>  <distance_score>  (721) 
12.00855438270792

>  <path>  (721) 
/opt/xchem-fragalysis-2/maxwin/BulkDock/SCRATCH/511021/C52796-P59/C52796-P59.minimised.mol

>  <scratch_subdir>  (721) 
/opt/xchem-fragalysis-2/maxwin/BulkDock/SCRATCH/511021/C52796-P59

>  <fragmenstein_runtime>  (721) 
19.525248527526855

>  <fragmenstein_outcome>  (721) 
too moved

>  <fragmenstein_mode>  (721) 
expansion

>  <fragmenstein_error>  (721) 


$$$$
C38745-P2
     RDKit          3D

 36 38  0  0  0  0  0  0  0  0999 V2000
  -11.2979  -22.2556    3.1110 N   0  0  0  0  0  0  0  0  0  0  0  0
  -10.4056  -22.6503    3.7434 C   0  0  0  0  0  0  0  0  0  0  0  0
   -9.3238  -23.2467    4.5300 C   0  0  0  0  0  0  0  0  0  0  0  0
   -7.9510  -22.8716    4.0032 C   0  0  0  0  0  0  0  0  0  0  0  0
   -7.7299  -21.8635    3.3270 O   0  0  0  0  0  0  0  0  0  0  0  0
   -6.7898  -23.7690    4.4263 C   0  0  0  0  0  0  0  0  0  0  0  0
   -5.7439  -23.9567    3.3238 C   0  0  0  0  0  0  0  0  0  0  0  0
   -6.0876  -25.0693    2.3295 C   0  0  0  0  0  0  0  0  0  0  0  0
   -7.2929  -24.8282    1.5635 N   0  0  0  0  0  0  0  0  0  0  0  0
   -7.3750  -24.2902    0.3138 C   0  0  0  0  0  0  0  0  0  0  0  0
   -8.7112  -24.2793   -0.0079 C   0  0  0  0  0  0  0  0  0  0  0  0
   -9.3539  -24.8322    1.1140 C   0  0  0  0  0  0  0  0  0  0  0  0
   -8.4942  -25.1557    2.0873 N   0  0  0  0  0  0  0  0  0  0  0  0
   -9.3786  -22.8038    5.9445 C   0  0  0  0  0  0  0  0  0  0  0  0
   -9.5559  -21.5943    6.4407 N   0  0  0  0  0  0  0  0  0  0  0  0
   -9.3318  -21.7528    7.7814 C   0  0  0  0  0  0  0  0  0  0  0  0
   -9.2717  -20.8136    8.8093 C   0  0  0  0  0  0  0  0  0  0  0  0
   -8.8830  -21.2568   10.0820 C   0  0  0  0  0  0  0  0  0  0  0  0
   -8.6392  -22.6112   10.3365 C   0  0  0  0  0  0  0  0  0  0  0  0
   -8.7378  -23.5711    9.3228 C   0  0  0  0  0  0  0  0  0  0  0  0
   -9.0578  -23.0792    8.0644 C   0  0  0  0  0  0  0  0  0  0  0  0
   -9.0998  -23.7681    6.8867 O   0  0  0  0  0  0  0  0  0  0  0  0
   -9.4292  -24.3362    4.4818 H   0  0  0  0  0  0  0  0  0  0  0  0
   -6.3251  -23.2836    5.2924 H   0  0  0  0  0  0  0  0  0  0  0  0
   -7.1652  -24.7414    4.7616 H   0  0  0  0  0  0  0  0  0  0  0  0
   -4.7933  -24.2256    3.8010 H   0  0  0  0  0  0  0  0  0  0  0  0
   -5.5693  -23.0181    2.7848 H   0  0  0  0  0  0  0  0  0  0  0  0
   -5.2661  -25.1915    1.6140 H   0  0  0  0  0  0  0  0  0  0  0  0
   -6.2124  -26.0289    2.8450 H   0  0  0  0  0  0  0  0  0  0  0  0
   -6.5003  -23.9633   -0.2309 H   0  0  0  0  0  0  0  0  0  0  0  0
   -9.1613  -23.9193   -0.9222 H   0  0  0  0  0  0  0  0  0  0  0  0
  -10.4139  -24.9995    1.2624 H   0  0  0  0  0  0  0  0  0  0  0  0
   -9.4567  -19.7712    8.5884 H   0  0  0  0  0  0  0  0  0  0  0  0
   -8.7460  -20.5359   10.8857 H   0  0  0  0  0  0  0  0  0  0  0  0
   -8.3225  -22.9117   11.3341 H   0  0  0  0  0  0  0  0  0  0  0  0
   -8.5149  -24.6158    9.4949 H   0  0  0  0  0  0  0  0  0  0  0  0
  1  2  3  0
  2  3  1  0
  3  4  1  0
  4  5  2  0
  4  6  1  0
  6  7  1  0
  7  8  1  0
  8  9  1  0
  9 10  1  0
 10 11  2  0
 11 12  1  0
 12 13  2  0
  3 14  1  0
 14 15  2  0
 15 16  1  0
 16 17  2  0
 17 18  1  0
 18 19  2  0
 19 20  1  0
 20 21  2  0
 21 22  1  0
 13  9  1  0
 22 14  1  0
 21 16  1  0
  3 23  1  0
  6 24  1  0
  6 25  1  0
  7 26  1  0
  7 27  1  0
  8 28  1  0
  8 29  1  0
 10 30  1  0
 11 31  1  0
 12 32  1  0
 17 33  1  0
 18 34  1  0
 19 35  1  0
 20 36  1  0
M  END
>  <Energy>  (722) 
17.933472201893643

>  <compound_id>  (722) 
38745

>  <target_id>  (722) 
1

>  <reference_id>  (722) 
2

>  <inspiration_ids>  (722) 
[2, 59]

>  <energy_score>  (722) 
-36.23852234760318

>  <distance_score>  (722) 
0.47269708290254564

>  <path>  (722) 
/opt/xchem-fragalysis-2/maxwin/BulkDock/SCRATCH/511021/C38745-P2/C38745-P2.minimised.mol

>  <scratch_subdir>  (722) 
/opt/xchem-fragalysis-2/maxwin/BulkDock/SCRATCH/511021/C38745-P2

>  <fragmenstein_runtime>  (722) 
1.9677467346191406

>  <fragmenstein_outcome>  (722) 
acceptable

>  <fragmenstein_mode>  (722) 
expansion

>  <fragmenstein_error>  (722) 


$$$$
C38745-P59
     RDKit          3D

 36 38  0  0  0  0  0  0  0  0999 V2000
   -7.6686  -24.7866    2.2040 N   0  0  0  0  0  0  0  0  0  0  0  0
   -7.6279  -23.9777    3.0365 C   0  0  0  0  0  0  0  0  0  0  0  0
   -7.5539  -22.9594    4.0848 C   0  0  0  0  0  0  0  0  0  0  0  0
   -6.2729  -23.1102    4.8820 C   0  0  0  0  0  0  0  0  0  0  0  0
   -5.3996  -22.2366    4.8219 O   0  0  0  0  0  0  0  0  0  0  0  0
   -6.0819  -24.3446    5.7588 C   0  0  0  0  0  0  0  0  0  0  0  0
   -4.6100  -24.6272    6.0539 C   0  0  0  0  0  0  0  0  0  0  0  0
   -4.4517  -25.9312    6.8343 C   0  0  0  0  0  0  0  0  0  0  0  0
   -3.0627  -26.2768    7.0692 N   0  0  0  0  0  0  0  0  0  0  0  0
   -2.4091  -26.2848    8.2672 C   0  0  0  0  0  0  0  0  0  0  0  0
   -1.1240  -26.6918    7.9964 C   0  0  0  0  0  0  0  0  0  0  0  0
   -1.1089  -26.9229    6.6092 C   0  0  0  0  0  0  0  0  0  0  0  0
   -2.2931  -26.6823    6.0411 N   0  0  0  0  0  0  0  0  0  0  0  0
   -8.7252  -23.0087    4.9767 C   0  0  0  0  0  0  0  0  0  0  0  0
   -9.5559  -22.0284    5.2789 N   0  0  0  0  0  0  0  0  0  0  0  0
  -10.4801  -22.6439    6.0831 C   0  0  0  0  0  0  0  0  0  0  0  0
  -11.6088  -22.1357    6.7263 C   0  0  0  0  0  0  0  0  0  0  0  0
  -12.3282  -23.0035    7.5660 C   0  0  0  0  0  0  0  0  0  0  0  0
  -11.9423  -24.3437    7.7370 C   0  0  0  0  0  0  0  0  0  0  0  0
  -10.8290  -24.8736    7.0734 C   0  0  0  0  0  0  0  0  0  0  0  0
  -10.1399  -23.9741    6.2705 C   0  0  0  0  0  0  0  0  0  0  0  0
   -9.0111  -24.2151    5.5573 O   0  0  0  0  0  0  0  0  0  0  0  0
   -7.5234  -21.9707    3.6089 H   0  0  0  0  0  0  0  0  0  0  0  0
   -6.6237  -24.1859    6.6972 H   0  0  0  0  0  0  0  0  0  0  0  0
   -6.5122  -25.2117    5.2470 H   0  0  0  0  0  0  0  0  0  0  0  0
   -4.1733  -23.7974    6.6243 H   0  0  0  0  0  0  0  0  0  0  0  0
   -4.0511  -24.6798    5.1109 H   0  0  0  0  0  0  0  0  0  0  0  0
   -4.9488  -25.8589    7.8084 H   0  0  0  0  0  0  0  0  0  0  0  0
   -4.8988  -26.7728    6.2923 H   0  0  0  0  0  0  0  0  0  0  0  0
   -2.8969  -26.0031    9.1896 H   0  0  0  0  0  0  0  0  0  0  0  0
   -0.3136  -26.8094    8.7011 H   0  0  0  0  0  0  0  0  0  0  0  0
   -0.2876  -27.2593    5.9899 H   0  0  0  0  0  0  0  0  0  0  0  0
  -11.8801  -21.1073    6.5654 H   0  0  0  0  0  0  0  0  0  0  0  0
  -13.2132  -22.6600    8.0903 H   0  0  0  0  0  0  0  0  0  0  0  0
  -12.5259  -24.9879    8.3912 H   0  0  0  0  0  0  0  0  0  0  0  0
  -10.5096  -25.8995    7.1930 H   0  0  0  0  0  0  0  0  0  0  0  0
  1  2  3  0
  2  3  1  0
  3  4  1  0
  4  5  2  0
  4  6  1  0
  6  7  1  0
  7  8  1  0
  8  9  1  0
  9 10  1  0
 10 11  2  0
 11 12  1  0
 12 13  2  0
  3 14  1  0
 14 15  2  0
 15 16  1  0
 16 17  2  0
 17 18  1  0
 18 19  2  0
 19 20  1  0
 20 21  2  0
 21 22  1  0
 13  9  1  0
 22 14  1  0
 21 16  1  0
  3 23  1  0
  6 24  1  0
  6 25  1  0
  7 26  1  0
  7 27  1  0
  8 28  1  0
  8 29  1  0
 10 30  1  0
 11 31  1  0
 12 32  1  0
 17 33  1  0
 18 34  1  0
 19 35  1  0
 20 36  1  0
M  END
>  <Energy>  (723) 
24.216980150881589

>  <compound_id>  (723) 
38745

>  <target_id>  (723) 
1

>  <reference_id>  (723) 
59

>  <inspiration_ids>  (723) 
[2, 59]

>  <energy_score>  (723) 
-29.955014398616406

>  <distance_score>  (723) 
3.188700952264435

>  <path>  (723) 
/opt/xchem-fragalysis-2/maxwin/BulkDock/SCRATCH/511021/C38745-P59/C38745-P59.minimised.mol

>  <scratch_subdir>  (723) 
/opt/xchem-fragalysis-2/maxwin/BulkDock/SCRATCH/511021/C38745-P59

>  <fragmenstein_runtime>  (723) 
2.0152204036712646

>  <fragmenstein_outcome>  (723) 
too moved

>  <fragmenstein_mode>  (723) 
expansion

>  <fragmenstein_error>  (723) 


$$$$
C52805-P2
     RDKit          3D

 33 35  0  0  0  0  0  0  0  0999 V2000
   -8.6148  -20.9371   10.9165 F   0  0  0  0  0  0  0  0  0  0  0  0
   -7.4929  -20.3504   11.3332 C   0  0  0  0  0  0  0  0  0  0  0  0
   -6.5977  -20.8549   12.0654 C   0  0  0  0  0  0  0  0  0  0  0  0
   -5.1998  -19.9786   12.3415 C   0  0  0  0  0  0  0  0  0  0  0  0
   -5.2869  -18.8673   13.0289 C   0  0  0  0  0  0  0  0  0  0  0  0
   -4.0555  -18.0060   14.0891 O   0  0  0  0  0  0  0  0  0  0  0  0
   -4.5894  -16.7552   14.5267 C   0  0  0  0  0  0  0  0  0  0  0  0
   -3.8185  -16.3568   16.3814 S   0  0  0  0  0  0  0  0  0  0  0  0
   -2.5712  -14.4326   16.6486 C   0  0  0  0  0  0  0  0  0  0  0  0
   -2.1049  -12.9905   17.7796 C   0  0  0  0  0  0  0  0  0  0  0  0
   -2.8432  -11.5264   18.2962 C   0  0  0  0  0  0  0  0  0  0  0  0
   -2.3132  -10.3861   19.2103 C   0  0  0  0  0  0  0  0  0  0  0  0
   -1.9804   -9.1180   18.7239 C   0  0  0  0  0  0  0  0  0  0  0  0
   -1.6152   -8.0627   19.5877 C   0  0  0  0  0  0  0  0  0  0  0  0
   -1.6377   -8.1318   20.9314 N   0  0  0  0  0  0  0  0  0  0  0  0
   -1.9773   -9.3426   21.4040 C   0  0  0  0  0  0  0  0  0  0  0  0
   -2.2948  -10.4549   20.5957 C   0  0  0  0  0  0  0  0  0  0  0  0
   -5.9886  -16.6844   13.8172 N   0  0  0  0  0  0  0  0  0  0  0  0
   -6.4145  -18.1344   12.8577 C   0  0  0  0  0  0  0  0  0  0  0  0
   -7.3803  -19.2061   11.9896 C   0  0  0  0  0  0  0  0  0  0  0  0
   -6.6303  -21.9403   12.1986 H   0  0  0  0  0  0  0  0  0  0  0  0
   -4.2055  -20.4455   12.3728 H   0  0  0  0  0  0  0  0  0  0  0  0
   -2.0203  -14.9564   17.4214 H   0  0  0  0  0  0  0  0  0  0  0  0
   -1.7831  -14.5118   15.9071 H   0  0  0  0  0  0  0  0  0  0  0  0
   -1.8188  -13.4405   18.7072 H   0  0  0  0  0  0  0  0  0  0  0  0
   -1.0896  -12.7666   17.5146 H   0  0  0  0  0  0  0  0  0  0  0  0
   -3.1676  -10.9784   17.4170 H   0  0  0  0  0  0  0  0  0  0  0  0
   -3.7690  -11.8049   18.7981 H   0  0  0  0  0  0  0  0  0  0  0  0
   -1.9781   -8.9374   17.6683 H   0  0  0  0  0  0  0  0  0  0  0  0
   -1.3169   -7.1025   19.1781 H   0  0  0  0  0  0  0  0  0  0  0  0
   -2.0189   -9.4122   22.4850 H   0  0  0  0  0  0  0  0  0  0  0  0
   -2.5674  -11.3823   21.0424 H   0  0  0  0  0  0  0  0  0  0  0  0
   -8.5503  -19.0995   12.0032 H   0  0  0  0  0  0  0  0  0  0  0  0
  1  2  1  0
  2  3  2  0
  3  4  1  0
  4  5  2  0
  5  6  1  0
  6  7  1  0
  7  8  1  0
  8  9  1  0
  9 10  1  0
 10 11  1  0
 11 12  1  0
 12 13  2  0
 13 14  1  0
 14 15  2  0
 15 16  1  0
 16 17  2  0
  7 18  2  0
 18 19  1  0
 19 20  2  0
 20  2  1  0
 19  5  1  0
 17 12  1  0
  3 21  1  0
  4 22  1  0
  9 23  1  0
  9 24  1  0
 10 25  1  0
 10 26  1  0
 11 27  1  0
 11 28  1  0
 13 29  1  0
 14 30  1  0
 16 31  1  0
 17 32  1  0
 20 33  1  0
M  END
>  <Energy>  (724) 
514.32668350971107

>  <compound_id>  (724) 
52805

>  <target_id>  (724) 
1

>  <reference_id>  (724) 
2

>  <inspiration_ids>  (724) 
[2, 59]

>  <energy_score>  (724) 
480.65817070741565

>  <distance_score>  (724) 
10.649133603968334

>  <path>  (724) 
/opt/xchem-fragalysis-2/maxwin/BulkDock/SCRATCH/511021/C52805-P2/C52805-P2.minimised.mol

>  <scratch_subdir>  (724) 
/opt/xchem-fragalysis-2/maxwin/BulkDock/SCRATCH/511021/C52805-P2

>  <fragmenstein_runtime>  (724) 
7.849993467330933

>  <fragmenstein_outcome>  (724) 
too moved

>  <fragmenstein_mode>  (724) 
expansion

>  <fragmenstein_error>  (724) 


$$$$
C52805-P59
     RDKit          3D

 33 35  0  0  0  0  0  0  0  0999 V2000
  -11.5541  -21.4422    6.3717 F   0  0  0  0  0  0  0  0  0  0  0  0
  -10.8328  -20.7154    7.2261 C   0  0  0  0  0  0  0  0  0  0  0  0
   -9.8279  -19.9093    6.8699 C   0  0  0  0  0  0  0  0  0  0  0  0
   -9.0857  -19.4409    8.0175 C   0  0  0  0  0  0  0  0  0  0  0  0
   -9.2253  -20.0373    9.3588 C   0  0  0  0  0  0  0  0  0  0  0  0
   -8.5906  -19.8731   10.9263 O   0  0  0  0  0  0  0  0  0  0  0  0
   -9.4749  -18.7420   11.8438 C   0  0  0  0  0  0  0  0  0  0  0  0
   -9.1276  -16.9860   13.3482 S   0  0  0  0  0  0  0  0  0  0  0  0
   -7.6961  -15.6225   14.9021 C   0  0  0  0  0  0  0  0  0  0  0  0
   -6.9106  -14.4015   16.4949 C   0  0  0  0  0  0  0  0  0  0  0  0
   -5.8593  -12.9020   17.6273 C   0  0  0  0  0  0  0  0  0  0  0  0
   -4.2718  -11.9852   18.1767 C   0  0  0  0  0  0  0  0  0  0  0  0
   -2.9512  -12.4153   17.9734 C   0  0  0  0  0  0  0  0  0  0  0  0
   -1.9462  -11.4953   18.1045 C   0  0  0  0  0  0  0  0  0  0  0  0
   -2.1087  -10.1975   18.2508 N   0  0  0  0  0  0  0  0  0  0  0  0
   -3.1556  -10.0735   18.9945 C   0  0  0  0  0  0  0  0  0  0  0  0
   -4.0600  -11.1896   19.2232 C   0  0  0  0  0  0  0  0  0  0  0  0
  -10.3120  -18.5424   10.4921 N   0  0  0  0  0  0  0  0  0  0  0  0
  -10.4660  -19.4820    9.2531 C   0  0  0  0  0  0  0  0  0  0  0  0
  -11.2289  -20.4726    8.5211 C   0  0  0  0  0  0  0  0  0  0  0  0
   -9.6110  -19.6262    5.8516 H   0  0  0  0  0  0  0  0  0  0  0  0
   -8.5863  -18.4798    7.9419 H   0  0  0  0  0  0  0  0  0  0  0  0
   -6.8611  -16.1136   14.3957 H   0  0  0  0  0  0  0  0  0  0  0  0
   -7.9600  -16.2783   15.7395 H   0  0  0  0  0  0  0  0  0  0  0  0
   -7.6936  -13.8902   17.0186 H   0  0  0  0  0  0  0  0  0  0  0  0
   -6.4739  -15.3001   16.8992 H   0  0  0  0  0  0  0  0  0  0  0  0
   -6.0623  -12.9108   18.7288 H   0  0  0  0  0  0  0  0  0  0  0  0
   -6.5664  -12.0181   17.8017 H   0  0  0  0  0  0  0  0  0  0  0  0
   -2.6492  -13.3758   17.5601 H   0  0  0  0  0  0  0  0  0  0  0  0
   -0.9792  -11.8734   17.9739 H   0  0  0  0  0  0  0  0  0  0  0  0
   -3.1607   -9.1743   19.5813 H   0  0  0  0  0  0  0  0  0  0  0  0
   -4.5882  -11.2806   20.1595 H   0  0  0  0  0  0  0  0  0  0  0  0
  -11.9929  -21.1012    8.9215 H   0  0  0  0  0  0  0  0  0  0  0  0
  1  2  1  0
  2  3  2  0
  3  4  1  0
  4  5  2  0
  5  6  1  0
  6  7  1  0
  7  8  1  0
  8  9  1  0
  9 10  1  0
 10 11  1  0
 11 12  1  0
 12 13  2  0
 13 14  1  0
 14 15  2  0
 15 16  1  0
 16 17  2  0
  7 18  2  0
 18 19  1  0
 19 20  2  0
 20  2  1  0
 19  5  1  0
 17 12  1  0
  3 21  1  0
  4 22  1  0
  9 23  1  0
  9 24  1  0
 10 25  1  0
 10 26  1  0
 11 27  1  0
 11 28  1  0
 13 29  1  0
 14 30  1  0
 16 31  1  0
 17 32  1  0
 20 33  1  0
M  END
>  <Energy>  (725) 
1078.5267955974184

>  <compound_id>  (725) 
52805

>  <target_id>  (725) 
1

>  <reference_id>  (725) 
59

>  <inspiration_ids>  (725) 
[2, 59]

>  <energy_score>  (725) 
1044.8582827951327

>  <distance_score>  (725) 
11.003250268225832

>  <path>  (725) 
/opt/xchem-fragalysis-2/maxwin/BulkDock/SCRATCH/511021/C52805-P59/C52805-P59.minimised.mol

>  <scratch_subdir>  (725) 
/opt/xchem-fragalysis-2/maxwin/BulkDock/SCRATCH/511021/C52805-P59

>  <fragmenstein_runtime>  (725) 
8.846772909164429

>  <fragmenstein_outcome>  (725) 
too moved

>  <fragmenstein_mode>  (725) 
expansion

>  <fragmenstein_error>  (725) 


$$$$
C52812-P2
     RDKit          3D

 39 42  0  0  0  0  0  0  0  0999 V2000
   -3.7863  -15.9403   22.3788 C   0  0  0  0  0  0  0  0  0  0  0  0
   -5.0460  -15.6366   22.9121 C   0  0  0  0  0  0  0  0  0  0  0  0
   -5.4617  -14.3020   23.0859 C   0  0  0  0  0  0  0  0  0  0  0  0
   -4.5577  -13.3083   22.6930 C   0  0  0  0  0  0  0  0  0  0  0  0
   -4.6790  -11.9401   22.8121 O   0  0  0  0  0  0  0  0  0  0  0  0
   -3.4727  -11.4427   22.3494 C   0  0  0  0  0  0  0  0  0  0  0  0
   -3.0214   -9.9557   22.6719 C   0  0  0  0  0  0  0  0  0  0  0  0
   -1.6200  -10.0522   23.3548 C   0  0  0  0  0  0  0  0  0  0  0  0
   -1.6287  -10.5107   24.7166 O   0  0  0  0  0  0  0  0  0  0  0  0
   -2.9119  -10.4270   25.3362 C   0  0  0  0  0  0  0  0  0  0  0  0
   -3.6456   -9.1388   24.9506 C   0  0  0  0  0  0  0  0  0  0  0  0
   -3.9341   -8.9741   23.5019 N   0  0  0  0  0  0  0  0  0  0  0  0
   -3.7088   -7.5151   23.1089 C   0  0  0  0  0  0  0  0  0  0  0  0
   -4.4979   -6.2824   23.7856 C   0  0  0  0  0  0  0  0  0  0  0  0
   -3.3713   -4.7590   23.8423 C   0  0  0  0  0  0  0  0  0  0  0  0
   -3.2848   -3.7325   25.4104 C   0  0  0  0  0  0  0  0  0  0  0  0
   -4.8148   -3.8945   26.6723 N   0  0  0  0  0  0  0  0  0  0  0  0
   -5.7936   -5.7026   26.6851 C   0  0  0  0  0  0  0  0  0  0  0  0
   -5.9107   -6.6168   24.9777 C   0  0  0  0  0  0  0  0  0  0  0  0
   -2.7006  -12.3863   21.8107 N   0  0  0  0  0  0  0  0  0  0  0  0
   -3.3228  -13.5731   22.1242 C   0  0  0  0  0  0  0  0  0  0  0  0
   -2.9142  -14.9142   21.9695 C   0  0  0  0  0  0  0  0  0  0  0  0
   -3.4834  -16.9785   22.2628 H   0  0  0  0  0  0  0  0  0  0  0  0
   -5.7119  -16.4441   23.2103 H   0  0  0  0  0  0  0  0  0  0  0  0
   -6.4222  -14.0494   23.5177 H   0  0  0  0  0  0  0  0  0  0  0  0
   -2.8426   -9.5023   21.6909 H   0  0  0  0  0  0  0  0  0  0  0  0
   -0.9437  -10.7077   22.7946 H   0  0  0  0  0  0  0  0  0  0  0  0
   -1.1440   -9.0646   23.3600 H   0  0  0  0  0  0  0  0  0  0  0  0
   -3.4959  -11.3201   25.0955 H   0  0  0  0  0  0  0  0  0  0  0  0
   -2.7490  -10.4460   26.4192 H   0  0  0  0  0  0  0  0  0  0  0  0
   -3.0225   -8.3099   25.3104 H   0  0  0  0  0  0  0  0  0  0  0  0
   -4.5919   -9.1015   25.4986 H   0  0  0  0  0  0  0  0  0  0  0  0
   -2.6471   -7.2925   23.2741 H   0  0  0  0  0  0  0  0  0  0  0  0
   -3.8725   -7.4096   22.0427 H   0  0  0  0  0  0  0  0  0  0  0  0
   -2.5569   -4.6648   23.1241 H   0  0  0  0  0  0  0  0  0  0  0  0
   -3.2183   -2.6465   25.3762 H   0  0  0  0  0  0  0  0  0  0  0  0
   -6.5197   -5.9016   27.5098 H   0  0  0  0  0  0  0  0  0  0  0  0
   -6.4132   -7.5858   24.9637 H   0  0  0  0  0  0  0  0  0  0  0  0
   -1.9449  -15.1387   21.5386 H   0  0  0  0  0  0  0  0  0  0  0  0
  1  2  2  0
  2  3  1  0
  3  4  2  0
  4  5  1  0
  5  6  1  0
  6  7  1  0
  7  8  1  0
  8  9  1  0
  9 10  1  0
 10 11  1  0
 11 12  1  0
 12 13  1  0
 13 14  1  0
 14 15  2  0
 15 16  1  0
 16 17  2  0
 17 18  1  0
 18 19  2  0
  6 20  2  0
 20 21  1  0
 21 22  2  0
 22  1  1  0
 21  4  1  0
 12  7  1  0
 19 14  1  0
  1 23  1  0
  2 24  1  0
  3 25  1  0
  7 26  1  0
  8 27  1  0
  8 28  1  0
 10 29  1  0
 10 30  1  0
 11 31  1  0
 11 32  1  0
 13 33  1  0
 13 34  1  0
 15 35  1  0
 16 36  1  0
 18 37  1  0
 19 38  1  0
 22 39  1  0
M  END
>  <Energy>  (726) 
745.82591598186684

>  <compound_id>  (726) 
52812

>  <target_id>  (726) 
1

>  <reference_id>  (726) 
2

>  <inspiration_ids>  (726) 
[2, 59]

>  <energy_score>  (726) 
588.2955370642021

>  <distance_score>  (726) 
14.653610178274873

>  <path>  (726) 
/opt/xchem-fragalysis-2/maxwin/BulkDock/SCRATCH/511021/C52812-P2/C52812-P2.minimised.mol

>  <scratch_subdir>  (726) 
/opt/xchem-fragalysis-2/maxwin/BulkDock/SCRATCH/511021/C52812-P2

>  <fragmenstein_runtime>  (726) 
13.850188970565796

>  <fragmenstein_outcome>  (726) 
too moved

>  <fragmenstein_mode>  (726) 
expansion

>  <fragmenstein_error>  (726) 


$$$$
C52812-P59
     RDKit          3D

 39 42  0  0  0  0  0  0  0  0999 V2000
  -13.2958  -15.4300   16.3713 C   0  0  0  0  0  0  0  0  0  0  0  0
  -12.8801  -16.5807   17.0504 C   0  0  0  0  0  0  0  0  0  0  0  0
  -12.1814  -16.5000   18.2644 C   0  0  0  0  0  0  0  0  0  0  0  0
  -11.9461  -15.2163   18.7487 C   0  0  0  0  0  0  0  0  0  0  0  0
  -11.3148  -14.8568   19.9134 O   0  0  0  0  0  0  0  0  0  0  0  0
  -11.4127  -13.4634   19.9670 C   0  0  0  0  0  0  0  0  0  0  0  0
  -11.4985  -12.8471   21.3950 C   0  0  0  0  0  0  0  0  0  0  0  0
  -12.6775  -11.8366   21.4747 C   0  0  0  0  0  0  0  0  0  0  0  0
  -12.7992  -11.1935   22.7602 O   0  0  0  0  0  0  0  0  0  0  0  0
  -12.4198  -12.0507   23.8405 C   0  0  0  0  0  0  0  0  0  0  0  0
  -10.9729  -12.5919   23.7063 C   0  0  0  0  0  0  0  0  0  0  0  0
  -10.3353  -12.4377   22.3551 N   0  0  0  0  0  0  0  0  0  0  0  0
   -9.8334  -11.0002   22.2328 C   0  0  0  0  0  0  0  0  0  0  0  0
   -9.0634  -10.3487   23.4249 C   0  0  0  0  0  0  0  0  0  0  0  0
   -9.3108   -9.0078   23.7935 C   0  0  0  0  0  0  0  0  0  0  0  0
   -8.5290   -8.3866   24.7738 C   0  0  0  0  0  0  0  0  0  0  0  0
   -7.5157   -8.9935   25.4232 N   0  0  0  0  0  0  0  0  0  0  0  0
   -7.2949  -10.2838   25.0763 C   0  0  0  0  0  0  0  0  0  0  0  0
   -8.0226  -10.9917   24.1054 C   0  0  0  0  0  0  0  0  0  0  0  0
  -11.9454  -12.9569   18.8549 N   0  0  0  0  0  0  0  0  0  0  0  0
  -12.3476  -14.0537   18.1129 C   0  0  0  0  0  0  0  0  0  0  0  0
  -13.0371  -14.1523   16.8913 C   0  0  0  0  0  0  0  0  0  0  0  0
  -13.8443  -15.5149   15.4363 H   0  0  0  0  0  0  0  0  0  0  0  0
  -13.1339  -17.5532   16.6389 H   0  0  0  0  0  0  0  0  0  0  0  0
  -11.8742  -17.3711   18.8260 H   0  0  0  0  0  0  0  0  0  0  0  0
  -11.8879  -13.7436   21.9093 H   0  0  0  0  0  0  0  0  0  0  0  0
  -13.6284  -12.3417   21.2664 H   0  0  0  0  0  0  0  0  0  0  0  0
  -12.5614  -11.0386   20.7330 H   0  0  0  0  0  0  0  0  0  0  0  0
  -13.1366  -12.8789   23.8924 H   0  0  0  0  0  0  0  0  0  0  0  0
  -12.5140  -11.4744   24.7665 H   0  0  0  0  0  0  0  0  0  0  0  0
  -10.9961  -13.6655   23.9428 H   0  0  0  0  0  0  0  0  0  0  0  0
  -10.3595  -12.1904   24.5171 H   0  0  0  0  0  0  0  0  0  0  0  0
  -10.6611  -10.3285   21.9883 H   0  0  0  0  0  0  0  0  0  0  0  0
   -9.1658  -10.9817   21.3640 H   0  0  0  0  0  0  0  0  0  0  0  0
  -10.0949   -8.4376   23.3025 H   0  0  0  0  0  0  0  0  0  0  0  0
   -8.7101   -7.3530   25.0541 H   0  0  0  0  0  0  0  0  0  0  0  0
   -6.4775  -10.7672   25.6054 H   0  0  0  0  0  0  0  0  0  0  0  0
   -7.7542  -12.0163   23.8660 H   0  0  0  0  0  0  0  0  0  0  0  0
  -13.3553  -13.2574   16.3677 H   0  0  0  0  0  0  0  0  0  0  0  0
  1  2  2  0
  2  3  1  0
  3  4  2  0
  4  5  1  0
  5  6  1  0
  6  7  1  0
  7  8  1  0
  8  9  1  0
  9 10  1  0
 10 11  1  0
 11 12  1  0
 12 13  1  0
 13 14  1  0
 14 15  2  0
 15 16  1  0
 16 17  2  0
 17 18  1  0
 18 19  2  0
  6 20  2  0
 20 21  1  0
 21 22  2  0
 22  1  1  0
 21  4  1  0
 12  7  1  0
 19 14  1  0
  1 23  1  0
  2 24  1  0
  3 25  1  0
  7 26  1  0
  8 27  1  0
  8 28  1  0
 10 29  1  0
 10 30  1  0
 11 31  1  0
 11 32  1  0
 13 33  1  0
 13 34  1  0
 15 35  1  0
 16 36  1  0
 18 37  1  0
 19 38  1  0
 22 39  1  0
M  END
>  <Energy>  (727) 
159.9620520566011

>  <compound_id>  (727) 
52812

>  <target_id>  (727) 
1

>  <reference_id>  (727) 
59

>  <inspiration_ids>  (727) 
[2, 59]

>  <energy_score>  (727) 
2.431673138942358

>  <distance_score>  (727) 
13.50859170052187

>  <path>  (727) 
/opt/xchem-fragalysis-2/maxwin/BulkDock/SCRATCH/511021/C52812-P59/C52812-P59.minimised.mol

>  <scratch_subdir>  (727) 
/opt/xchem-fragalysis-2/maxwin/BulkDock/SCRATCH/511021/C52812-P59

>  <fragmenstein_runtime>  (727) 
12.064637422561646

>  <fragmenstein_outcome>  (727) 
too moved

>  <fragmenstein_mode>  (727) 
expansion

>  <fragmenstein_error>  (727) 


$$$$
C48914-P95
     RDKit          3D

 46 47  0  0  0  0  0  0  0  0999 V2000
   -7.9457   -6.0916    7.7849 C   0  0  0  0  0  0  0  0  0  0  0  0
   -8.7743   -7.9804    8.0650 C   0  0  0  0  0  0  0  0  0  0  0  0
   -9.6532   -6.3546    6.9819 C   0  0  0  0  0  0  0  0  0  0  0  0
   -9.8037   -4.5577    6.7398 N   0  0  0  0  0  0  0  0  0  0  0  0
   -9.0797   -3.4980    7.5041 C   0  0  0  0  0  0  0  0  0  0  0  0
   -9.6801   -2.2118    6.9702 C   0  0  0  0  0  0  0  0  0  0  0  0
   -9.7895   -2.4871    5.4903 C   0  0  0  0  0  0  0  0  0  0  0  0
   -9.6668   -4.0113    5.3858 C   0  0  0  0  0  0  0  0  0  0  0  0
   -9.7653   -9.7489    7.9455 N   0  0  0  0  0  0  0  0  0  0  0  0
   -9.1751  -11.6312    7.5200 C   0  0  0  0  0  0  0  0  0  0  0  0
   -8.1045  -11.6253    7.2933 O   0  0  0  0  0  0  0  0  0  0  0  0
  -10.5900  -13.1803    7.3973 N   0  0  0  0  0  0  0  0  0  0  0  0
  -10.6706  -15.1687    6.7091 C   0  0  0  0  0  0  0  0  0  0  0  0
  -11.6115  -16.9732    6.5276 C   0  0  0  0  0  0  0  0  0  0  0  0
  -10.5267  -18.5463    7.5634 C   0  0  0  0  0  0  0  0  0  0  0  0
  -10.8168  -19.1469    8.8101 C   0  0  0  0  0  0  0  0  0  0  0  0
  -12.0177  -18.6473    9.2363 O   0  0  0  0  0  0  0  0  0  0  0  0
  -12.3701  -17.3048    9.1362 C   0  0  0  0  0  0  0  0  0  0  0  0
  -12.0284  -16.1866    7.6310 C   0  0  0  0  0  0  0  0  0  0  0  0
   -7.4347   -5.7696    6.8304 H   0  0  0  0  0  0  0  0  0  0  0  0
   -8.5622   -5.2830    8.1610 H   0  0  0  0  0  0  0  0  0  0  0  0
   -7.2768   -5.7423    8.6622 H   0  0  0  0  0  0  0  0  0  0  0  0
   -9.4104   -8.3218    7.2085 H   0  0  0  0  0  0  0  0  0  0  0  0
  -10.1875   -6.8561    6.1998 H   0  0  0  0  0  0  0  0  0  0  0  0
   -9.0262   -6.0497    6.1763 H   0  0  0  0  0  0  0  0  0  0  0  0
   -9.1902   -3.5361    8.5831 H   0  0  0  0  0  0  0  0  0  0  0  0
   -8.0040   -3.4965    7.2738 H   0  0  0  0  0  0  0  0  0  0  0  0
  -10.6756   -2.0355    7.3932 H   0  0  0  0  0  0  0  0  0  0  0  0
   -9.0570   -1.3391    7.1862 H   0  0  0  0  0  0  0  0  0  0  0  0
   -8.9651   -2.0067    4.9493 H   0  0  0  0  0  0  0  0  0  0  0  0
  -10.7137   -2.0789    5.0787 H   0  0  0  0  0  0  0  0  0  0  0  0
   -8.6563   -4.1463    5.0006 H   0  0  0  0  0  0  0  0  0  0  0  0
  -10.3978   -4.4478    4.7286 H   0  0  0  0  0  0  0  0  0  0  0  0
  -10.6459   -9.7645    8.2118 H   0  0  0  0  0  0  0  0  0  0  0  0
  -11.4001  -12.9582    7.7108 H   0  0  0  0  0  0  0  0  0  0  0  0
  -11.6762  -14.9632    6.1073 H   0  0  0  0  0  0  0  0  0  0  0  0
  -11.3051  -17.2007    5.3996 H   0  0  0  0  0  0  0  0  0  0  0  0
  -12.5020  -17.0447    5.7909 H   0  0  0  0  0  0  0  0  0  0  0  0
   -9.4155  -18.3761    7.7776 H   0  0  0  0  0  0  0  0  0  0  0  0
  -10.3273  -19.3594    6.7854 H   0  0  0  0  0  0  0  0  0  0  0  0
   -9.9872  -18.9224    9.4956 H   0  0  0  0  0  0  0  0  0  0  0  0
  -10.8737  -20.2291    8.6256 H   0  0  0  0  0  0  0  0  0  0  0  0
  -12.0645  -16.9493   10.1000 H   0  0  0  0  0  0  0  0  0  0  0  0
  -13.4187  -17.2812    9.2942 H   0  0  0  0  0  0  0  0  0  0  0  0
  -12.8939  -15.7524    6.9231 H   0  0  0  0  0  0  0  0  0  0  0  0
  -12.3920  -15.7199    8.4251 H   0  0  0  0  0  0  0  0  0  0  0  0
  1  2  1  0
  2  3  1  0
  3  4  1  0
  4  5  1  0
  5  6  1  0
  6  7  1  0
  7  8  1  0
  2  9  1  0
  9 10  1  0
 10 11  2  0
 10 12  1  0
 12 13  1  0
 13 14  1  0
 14 15  1  0
 15 16  1  0
 16 17  1  0
 17 18  1  0
 18 19  1  0
  8  4  1  0
 19 13  1  0
  1 20  1  0
  1 21  1  0
  1 22  1  0
  2 23  1  0
  3 24  1  0
  3 25  1  0
  5 26  1  0
  5 27  1  0
  6 28  1  0
  6 29  1  0
  7 30  1  0
  7 31  1  0
  8 32  1  0
  8 33  1  0
  9 34  1  0
 12 35  1  0
 13 36  1  0
 14 37  1  0
 14 38  1  0
 15 39  1  0
 15 40  1  0
 16 41  1  0
 16 42  1  0
 18 43  1  0
 18 44  1  0
 19 45  1  0
 19 46  1  0
M  END
>  <Energy>  (728) 
1643.1378257974438

>  <compound_id>  (728) 
48914

>  <target_id>  (728) 
1

>  <reference_id>  (728) 
95

>  <inspiration_ids>  (728) 
[95, 112]

>  <energy_score>  (728) 
1642.30764138824

>  <distance_score>  (728) 
7.644153937734879

>  <path>  (728) 
/opt/xchem-fragalysis-2/maxwin/BulkDock/SCRATCH/511021/C48914-P95/C48914-P95.minimised.mol

>  <scratch_subdir>  (728) 
/opt/xchem-fragalysis-2/maxwin/BulkDock/SCRATCH/511021/C48914-P95

>  <fragmenstein_runtime>  (728) 
13.48764157295227

>  <fragmenstein_outcome>  (728) 
too moved

>  <fragmenstein_mode>  (728) 
expansion

>  <fragmenstein_error>  (728) 


$$$$
C48914-P112
     RDKit          3D

 46 47  0  0  0  0  0  0  0  0999 V2000
  -13.9225   -8.0823    1.7272 C   0  0  0  0  0  0  0  0  0  0  0  0
  -13.7716   -8.1915    3.2387 C   0  0  0  0  0  0  0  0  0  0  0  0
  -12.4976   -7.1254    4.1383 C   0  0  0  0  0  0  0  0  0  0  0  0
  -10.8911   -6.2443    4.5216 N   0  0  0  0  0  0  0  0  0  0  0  0
  -10.0735   -6.5377    5.7470 C   0  0  0  0  0  0  0  0  0  0  0  0
   -8.9657   -5.3520    6.3234 C   0  0  0  0  0  0  0  0  0  0  0  0
   -9.2234   -4.2497    5.3705 C   0  0  0  0  0  0  0  0  0  0  0  0
  -10.5835   -4.7378    4.8885 C   0  0  0  0  0  0  0  0  0  0  0  0
  -14.0166   -9.6308    3.5746 N   0  0  0  0  0  0  0  0  0  0  0  0
  -15.0511  -10.2708    4.4532 C   0  0  0  0  0  0  0  0  0  0  0  0
  -15.9628   -9.7925    5.0234 O   0  0  0  0  0  0  0  0  0  0  0  0
  -14.5855  -11.7211    4.3885 N   0  0  0  0  0  0  0  0  0  0  0  0
  -15.0827  -12.9357    5.1018 C   0  0  0  0  0  0  0  0  0  0  0  0
  -14.1276  -14.1641    4.9798 C   0  0  0  0  0  0  0  0  0  0  0  0
  -14.6487  -15.4067    4.2461 C   0  0  0  0  0  0  0  0  0  0  0  0
  -15.8070  -16.1478    4.9159 C   0  0  0  0  0  0  0  0  0  0  0  0
  -16.3415  -15.4427    6.0234 O   0  0  0  0  0  0  0  0  0  0  0  0
  -17.1677  -14.3389    5.6826 C   0  0  0  0  0  0  0  0  0  0  0  0
  -16.5396  -13.2719    4.7636 C   0  0  0  0  0  0  0  0  0  0  0  0
  -13.0944   -8.5628    1.1987 H   0  0  0  0  0  0  0  0  0  0  0  0
  -14.8175   -8.6340    1.4062 H   0  0  0  0  0  0  0  0  0  0  0  0
  -14.1008   -7.0594    1.3940 H   0  0  0  0  0  0  0  0  0  0  0  0
  -14.7067   -7.7306    3.5890 H   0  0  0  0  0  0  0  0  0  0  0  0
  -12.7299   -6.5285    3.3602 H   0  0  0  0  0  0  0  0  0  0  0  0
  -13.1751   -7.3919    4.9256 H   0  0  0  0  0  0  0  0  0  0  0  0
  -10.0807   -7.6183    5.8141 H   0  0  0  0  0  0  0  0  0  0  0  0
  -10.4355   -6.4654    6.7037 H   0  0  0  0  0  0  0  0  0  0  0  0
   -7.8956   -5.5853    6.3550 H   0  0  0  0  0  0  0  0  0  0  0  0
   -9.1712   -5.0075    7.3368 H   0  0  0  0  0  0  0  0  0  0  0  0
   -9.2912   -3.2796    5.8766 H   0  0  0  0  0  0  0  0  0  0  0  0
   -8.4903   -4.1384    4.5665 H   0  0  0  0  0  0  0  0  0  0  0  0
  -11.0903   -4.5536    5.8440 H   0  0  0  0  0  0  0  0  0  0  0  0
  -10.7028   -4.0076    4.0901 H   0  0  0  0  0  0  0  0  0  0  0  0
  -13.3347  -10.3141    3.3154 H   0  0  0  0  0  0  0  0  0  0  0  0
  -13.7220  -11.7719    3.8774 H   0  0  0  0  0  0  0  0  0  0  0  0
  -15.0378  -12.6335    6.1487 H   0  0  0  0  0  0  0  0  0  0  0  0
  -13.8407  -14.4853    5.9871 H   0  0  0  0  0  0  0  0  0  0  0  0
  -13.2007  -13.8467    4.4936 H   0  0  0  0  0  0  0  0  0  0  0  0
  -13.8192  -16.1139    4.1160 H   0  0  0  0  0  0  0  0  0  0  0  0
  -14.9386  -15.1289    3.2251 H   0  0  0  0  0  0  0  0  0  0  0  0
  -16.5982  -16.3744    4.1911 H   0  0  0  0  0  0  0  0  0  0  0  0
  -15.4470  -17.1133    5.2814 H   0  0  0  0  0  0  0  0  0  0  0  0
  -18.0943  -14.7130    5.2314 H   0  0  0  0  0  0  0  0  0  0  0  0
  -17.4548  -13.8671    6.6279 H   0  0  0  0  0  0  0  0  0  0  0  0
  -17.1617  -12.3700    4.8143 H   0  0  0  0  0  0  0  0  0  0  0  0
  -16.6029  -13.6029    3.7198 H   0  0  0  0  0  0  0  0  0  0  0  0
  1  2  1  0
  2  3  1  0
  3  4  1  0
  4  5  1  0
  5  6  1  0
  6  7  1  0
  7  8  1  0
  2  9  1  0
  9 10  1  0
 10 11  2  0
 10 12  1  0
 12 13  1  0
 13 14  1  0
 14 15  1  0
 15 16  1  0
 16 17  1  0
 17 18  1  0
 18 19  1  0
  8  4  1  0
 19 13  1  0
  1 20  1  0
  1 21  1  0
  1 22  1  0
  2 23  1  0
  3 24  1  0
  3 25  1  0
  5 26  1  0
  5 27  1  0
  6 28  1  0
  6 29  1  0
  7 30  1  0
  7 31  1  0
  8 32  1  0
  8 33  1  0
  9 34  1  0
 12 35  1  0
 13 36  1  0
 14 37  1  0
 14 38  1  0
 15 39  1  0
 15 40  1  0
 16 41  1  0
 16 42  1  0
 18 43  1  0
 18 44  1  0
 19 45  1  0
 19 46  1  0
M  END
>  <Energy>  (729) 
240.68194540927209

>  <compound_id>  (729) 
48914

>  <target_id>  (729) 
1

>  <reference_id>  (729) 
112

>  <inspiration_ids>  (729) 
[95, 112]

>  <energy_score>  (729) 
239.8517610000708

>  <distance_score>  (729) 
9.453097332175357

>  <path>  (729) 
/opt/xchem-fragalysis-2/maxwin/BulkDock/SCRATCH/511021/C48914-P112/C48914-P112.minimised.mol

>  <scratch_subdir>  (729) 
/opt/xchem-fragalysis-2/maxwin/BulkDock/SCRATCH/511021/C48914-P112

>  <fragmenstein_runtime>  (729) 
12.639251708984375

>  <fragmenstein_outcome>  (729) 
too moved

>  <fragmenstein_mode>  (729) 
expansion

>  <fragmenstein_error>  (729) 


$$$$
C48915-P95
     RDKit          3D

 40 41  0  0  0  0  0  0  0  0999 V2000
   -8.8891   -5.9981    7.5000 C   0  0  0  0  0  0  0  0  0  0  0  0
   -7.5727   -7.2589    8.3369 C   0  0  0  0  0  0  0  0  0  0  0  0
   -7.2118   -5.3314    8.6708 C   0  0  0  0  0  0  0  0  0  0  0  0
   -7.2122   -4.1660    7.6412 N   0  0  0  0  0  0  0  0  0  0  0  0
   -6.4780   -4.0247    6.4084 C   0  0  0  0  0  0  0  0  0  0  0  0
   -7.1335   -2.8706    5.6479 C   0  0  0  0  0  0  0  0  0  0  0  0
   -8.4335   -2.6150    6.3773 C   0  0  0  0  0  0  0  0  0  0  0  0
   -8.0846   -2.9914    7.8035 C   0  0  0  0  0  0  0  0  0  0  0  0
   -7.4166   -8.1695    9.6584 N   0  0  0  0  0  0  0  0  0  0  0  0
   -6.1989   -8.5757   10.4375 C   0  0  0  0  0  0  0  0  0  0  0  0
   -5.0707   -8.3891   10.2197 O   0  0  0  0  0  0  0  0  0  0  0  0
   -6.8525   -9.3330   11.5460 N   0  0  0  0  0  0  0  0  0  0  0  0
   -6.2771  -10.1386   12.6210 C   0  0  0  0  0  0  0  0  0  0  0  0
   -5.6017  -11.4222   12.1501 C   0  0  0  0  0  0  0  0  0  0  0  0
   -5.7921  -12.3488   13.3303 C   0  0  0  0  0  0  0  0  0  0  0  0
   -7.1526  -12.1366   13.7135 O   0  0  0  0  0  0  0  0  0  0  0  0
   -7.3636  -10.7138   13.5811 C   0  0  0  0  0  0  0  0  0  0  0  0
   -9.7451   -6.4719    7.0254 H   0  0  0  0  0  0  0  0  0  0  0  0
   -8.4399   -5.5390    6.6152 H   0  0  0  0  0  0  0  0  0  0  0  0
   -9.2015   -5.1658    8.1221 H   0  0  0  0  0  0  0  0  0  0  0  0
   -6.9931   -7.9172    7.6638 H   0  0  0  0  0  0  0  0  0  0  0  0
   -7.8713   -4.9342    9.4389 H   0  0  0  0  0  0  0  0  0  0  0  0
   -6.3801   -5.4845    9.3101 H   0  0  0  0  0  0  0  0  0  0  0  0
   -5.4330   -3.7589    6.5850 H   0  0  0  0  0  0  0  0  0  0  0  0
   -6.5610   -4.9178    5.7965 H   0  0  0  0  0  0  0  0  0  0  0  0
   -7.2960   -3.1057    4.5915 H   0  0  0  0  0  0  0  0  0  0  0  0
   -6.4961   -1.9795    5.7026 H   0  0  0  0  0  0  0  0  0  0  0  0
   -9.2250   -3.2652    5.9856 H   0  0  0  0  0  0  0  0  0  0  0  0
   -8.7648   -1.5768    6.2848 H   0  0  0  0  0  0  0  0  0  0  0  0
   -7.5383   -2.1604    8.2646 H   0  0  0  0  0  0  0  0  0  0  0  0
   -8.9882   -3.1629    8.3852 H   0  0  0  0  0  0  0  0  0  0  0  0
   -8.2278   -8.4181   10.1664 H   0  0  0  0  0  0  0  0  0  0  0  0
   -7.8429   -9.2258   11.4808 H   0  0  0  0  0  0  0  0  0  0  0  0
   -5.5726   -9.5044   13.1699 H   0  0  0  0  0  0  0  0  0  0  0  0
   -6.1242  -11.8327   11.2842 H   0  0  0  0  0  0  0  0  0  0  0  0
   -4.5515  -11.2768   11.8832 H   0  0  0  0  0  0  0  0  0  0  0  0
   -5.1445  -12.0657   14.1690 H   0  0  0  0  0  0  0  0  0  0  0  0
   -5.5965  -13.3938   13.0976 H   0  0  0  0  0  0  0  0  0  0  0  0
   -8.3890  -10.5469   13.2397 H   0  0  0  0  0  0  0  0  0  0  0  0
   -7.2630  -10.2623   14.5745 H   0  0  0  0  0  0  0  0  0  0  0  0
  1  2  1  0
  2  3  1  0
  3  4  1  0
  4  5  1  0
  5  6  1  0
  6  7  1  0
  7  8  1  0
  2  9  1  0
  9 10  1  0
 10 11  2  0
 10 12  1  0
 12 13  1  0
 13 14  1  0
 14 15  1  0
 15 16  1  0
 16 17  1  0
  8  4  1  0
 17 13  1  0
  1 18  1  0
  1 19  1  0
  1 20  1  0
  2 21  1  0
  3 22  1  0
  3 23  1  0
  5 24  1  0
  5 25  1  0
  6 26  1  0
  6 27  1  0
  7 28  1  0
  7 29  1  0
  8 30  1  0
  8 31  1  0
  9 32  1  0
 12 33  1  0
 13 34  1  0
 14 35  1  0
 14 36  1  0
 15 37  1  0
 15 38  1  0
 17 39  1  0
 17 40  1  0
M  END
>  <Energy>  (730) 
199.55315276131401

>  <compound_id>  (730) 
48915

>  <target_id>  (730) 
1

>  <reference_id>  (730) 
95

>  <inspiration_ids>  (730) 
[95, 112]

>  <energy_score>  (730) 
214.25687334092487

>  <distance_score>  (730) 
10.247851224754308

>  <path>  (730) 
/opt/xchem-fragalysis-2/maxwin/BulkDock/SCRATCH/511021/C48915-P95/C48915-P95.minimised.mol

>  <scratch_subdir>  (730) 
/opt/xchem-fragalysis-2/maxwin/BulkDock/SCRATCH/511021/C48915-P95

>  <fragmenstein_runtime>  (730) 
13.79863691329956

>  <fragmenstein_outcome>  (730) 
too moved

>  <fragmenstein_mode>  (730) 
expansion

>  <fragmenstein_error>  (730) 


$$$$
C48915-P112
     RDKit          3D

 40 41  0  0  0  0  0  0  0  0999 V2000
  -10.6906   -9.4157    9.3715 C   0  0  0  0  0  0  0  0  0  0  0  0
  -12.3876   -9.4427    8.5667 C   0  0  0  0  0  0  0  0  0  0  0  0
  -11.3362   -8.3645    7.0193 C   0  0  0  0  0  0  0  0  0  0  0  0
  -10.1764   -6.7570    6.5188 N   0  0  0  0  0  0  0  0  0  0  0  0
   -9.1814   -5.6079    7.0825 C   0  0  0  0  0  0  0  0  0  0  0  0
   -9.4952   -4.2217    6.4867 C   0  0  0  0  0  0  0  0  0  0  0  0
   -9.7820   -4.5463    5.0830 C   0  0  0  0  0  0  0  0  0  0  0  0
  -10.4725   -5.9748    5.1640 C   0  0  0  0  0  0  0  0  0  0  0  0
  -12.3223  -11.0472    9.6798 N   0  0  0  0  0  0  0  0  0  0  0  0
  -13.4873  -11.8815   10.4584 C   0  0  0  0  0  0  0  0  0  0  0  0
  -14.6610  -11.6179   10.5854 O   0  0  0  0  0  0  0  0  0  0  0  0
  -12.4161  -13.5115   10.9866 N   0  0  0  0  0  0  0  0  0  0  0  0
  -12.9125  -15.2163   11.7350 C   0  0  0  0  0  0  0  0  0  0  0  0
  -12.8282  -16.6241   10.0191 C   0  0  0  0  0  0  0  0  0  0  0  0
  -12.4689  -17.9977    9.8767 C   0  0  0  0  0  0  0  0  0  0  0  0
  -11.3607  -17.7388   10.5441 O   0  0  0  0  0  0  0  0  0  0  0  0
  -11.5986  -16.7430   11.5786 C   0  0  0  0  0  0  0  0  0  0  0  0
   -9.8518   -8.7951    9.1273 H   0  0  0  0  0  0  0  0  0  0  0  0
  -10.0822  -10.0295    8.6947 H   0  0  0  0  0  0  0  0  0  0  0  0
  -10.6590   -9.6959   10.4115 H   0  0  0  0  0  0  0  0  0  0  0  0
  -13.2915   -8.9569    9.0030 H   0  0  0  0  0  0  0  0  0  0  0  0
  -10.9091   -8.4187    5.9650 H   0  0  0  0  0  0  0  0  0  0  0  0
  -10.0387   -8.8800    7.3175 H   0  0  0  0  0  0  0  0  0  0  0  0
   -9.1746   -5.3082    8.1163 H   0  0  0  0  0  0  0  0  0  0  0  0
   -8.1334   -5.7501    6.8049 H   0  0  0  0  0  0  0  0  0  0  0  0
  -10.3546   -3.7236    6.9456 H   0  0  0  0  0  0  0  0  0  0  0  0
   -8.6410   -3.5428    6.5895 H   0  0  0  0  0  0  0  0  0  0  0  0
  -10.3634   -3.7693    4.5998 H   0  0  0  0  0  0  0  0  0  0  0  0
   -8.8473   -4.4362    4.5302 H   0  0  0  0  0  0  0  0  0  0  0  0
  -10.3955   -6.6614    4.3191 H   0  0  0  0  0  0  0  0  0  0  0  0
  -11.4782   -5.6846    5.0235 H   0  0  0  0  0  0  0  0  0  0  0  0
  -11.4014  -11.5094    9.8363 H   0  0  0  0  0  0  0  0  0  0  0  0
  -11.4108  -13.3954   10.8165 H   0  0  0  0  0  0  0  0  0  0  0  0
  -12.2315  -14.9497   12.6000 H   0  0  0  0  0  0  0  0  0  0  0  0
  -12.5424  -16.2750    9.0464 H   0  0  0  0  0  0  0  0  0  0  0  0
  -13.8064  -16.9178    9.6748 H   0  0  0  0  0  0  0  0  0  0  0  0
  -11.9353  -18.4483    9.0798 H   0  0  0  0  0  0  0  0  0  0  0  0
  -13.2571  -18.6744   10.1371 H   0  0  0  0  0  0  0  0  0  0  0  0
  -10.8778  -16.5830   12.4943 H   0  0  0  0  0  0  0  0  0  0  0  0
  -11.0533  -16.5176   10.8189 H   0  0  0  0  0  0  0  0  0  0  0  0
  1  2  1  0
  2  3  1  0
  3  4  1  0
  4  5  1  0
  5  6  1  0
  6  7  1  0
  7  8  1  0
  2  9  1  0
  9 10  1  0
 10 11  2  0
 10 12  1  0
 12 13  1  0
 13 14  1  0
 14 15  1  0
 15 16  1  0
 16 17  1  0
  8  4  1  0
 17 13  1  0
  1 18  1  0
  1 19  1  0
  1 20  1  0
  2 21  1  0
  3 22  1  0
  3 23  1  0
  5 24  1  0
  5 25  1  0
  6 26  1  0
  6 27  1  0
  7 28  1  0
  7 29  1  0
  8 30  1  0
  8 31  1  0
  9 32  1  0
 12 33  1  0
 13 34  1  0
 14 35  1  0
 14 36  1  0
 15 37  1  0
 15 38  1  0
 17 39  1  0
 17 40  1  0
M  END
>  <Energy>  (731) 
1085.1248809171791

>  <compound_id>  (731) 
48915

>  <target_id>  (731) 
1

>  <reference_id>  (731) 
112

>  <inspiration_ids>  (731) 
[95, 112]

>  <energy_score>  (731) 
1099.8286014967816

>  <distance_score>  (731) 
8.42018824410034

>  <path>  (731) 
/opt/xchem-fragalysis-2/maxwin/BulkDock/SCRATCH/511021/C48915-P112/C48915-P112.minimised.mol

>  <scratch_subdir>  (731) 
/opt/xchem-fragalysis-2/maxwin/BulkDock/SCRATCH/511021/C48915-P112

>  <fragmenstein_runtime>  (731) 
10.097405433654785

>  <fragmenstein_outcome>  (731) 
too moved

>  <fragmenstein_mode>  (731) 
expansion

>  <fragmenstein_error>  (731) 


$$$$
C48916-P95
     RDKit          3D

 50 52  0  0  0  0  0  0  0  0999 V2000
  -15.1806   -8.4931    4.8547 C   0  0  0  0  0  0  0  0  0  0  0  0
  -13.7824   -9.1304    4.6231 C   0  0  0  0  0  0  0  0  0  0  0  0
  -12.6965   -7.3093    4.3254 C   0  0  0  0  0  0  0  0  0  0  0  0
  -11.0586   -6.1287    4.5196 N   0  0  0  0  0  0  0  0  0  0  0  0
  -10.1973   -5.7599    6.0053 C   0  0  0  0  0  0  0  0  0  0  0  0
  -10.2704   -4.2727    6.6406 C   0  0  0  0  0  0  0  0  0  0  0  0
   -9.9537   -3.4156    5.5500 C   0  0  0  0  0  0  0  0  0  0  0  0
  -10.5067   -4.3731    4.5169 C   0  0  0  0  0  0  0  0  0  0  0  0
  -14.2357  -10.8182    5.6044 N   0  0  0  0  0  0  0  0  0  0  0  0
  -13.9206  -12.6163    5.1844 C   0  0  0  0  0  0  0  0  0  0  0  0
  -13.3829  -12.9764    4.1691 O   0  0  0  0  0  0  0  0  0  0  0  0
  -14.4074  -13.7843    6.5836 N   0  0  0  0  0  0  0  0  0  0  0  0
  -14.0756  -15.7400    6.8408 C   0  0  0  0  0  0  0  0  0  0  0  0
  -13.8382  -16.7808    8.8696 C   0  0  0  0  0  0  0  0  0  0  0  0
  -13.4726  -18.5208    9.6295 C   0  0  0  0  0  0  0  0  0  0  0  0
  -14.6667  -20.1593    9.8110 C   0  0  0  0  0  0  0  0  0  0  0  0
  -16.0397  -19.9388   10.5974 C   0  0  0  0  0  0  0  0  0  0  0  0
  -15.7343  -18.6058   10.9842 O   0  0  0  0  0  0  0  0  0  0  0  0
  -15.3888  -17.9199    9.7855 C   0  0  0  0  0  0  0  0  0  0  0  0
  -12.9492  -15.9001    5.7043 C   0  0  0  0  0  0  0  0  0  0  0  0
  -14.3254  -16.3503    5.3387 C   0  0  0  0  0  0  0  0  0  0  0  0
  -15.9656   -9.2550    4.7953 H   0  0  0  0  0  0  0  0  0  0  0  0
  -15.4324   -7.7574    4.0864 H   0  0  0  0  0  0  0  0  0  0  0  0
  -15.2362   -8.0476    5.8519 H   0  0  0  0  0  0  0  0  0  0  0  0
  -13.8677   -9.5226    3.5943 H   0  0  0  0  0  0  0  0  0  0  0  0
  -13.4558   -6.8818    3.7027 H   0  0  0  0  0  0  0  0  0  0  0  0
  -12.4232   -7.4820    3.2805 H   0  0  0  0  0  0  0  0  0  0  0  0
  -10.1086   -6.6294    6.6267 H   0  0  0  0  0  0  0  0  0  0  0  0
   -9.1341   -5.6334    5.9495 H   0  0  0  0  0  0  0  0  0  0  0  0
  -11.2490   -3.9382    6.9998 H   0  0  0  0  0  0  0  0  0  0  0  0
   -9.5098   -4.1188    7.4228 H   0  0  0  0  0  0  0  0  0  0  0  0
  -10.4526   -2.4424    5.5999 H   0  0  0  0  0  0  0  0  0  0  0  0
   -8.8747   -3.2318    5.4585 H   0  0  0  0  0  0  0  0  0  0  0  0
   -9.4929   -4.4483    4.0918 H   0  0  0  0  0  0  0  0  0  0  0  0
  -10.9102   -3.6790    3.8268 H   0  0  0  0  0  0  0  0  0  0  0  0
  -14.6186  -10.7550    6.5336 H   0  0  0  0  0  0  0  0  0  0  0  0
  -14.9168  -13.2703    7.2902 H   0  0  0  0  0  0  0  0  0  0  0  0
  -12.8514  -16.5304    9.2684 H   0  0  0  0  0  0  0  0  0  0  0  0
  -13.4693  -17.9837   10.5173 H   0  0  0  0  0  0  0  0  0  0  0  0
  -12.4256  -18.7468    9.3859 H   0  0  0  0  0  0  0  0  0  0  0  0
  -15.1314  -20.9047    9.0601 H   0  0  0  0  0  0  0  0  0  0  0  0
  -14.0585  -21.0610    9.5846 H   0  0  0  0  0  0  0  0  0  0  0  0
  -16.2738  -20.5576   11.4701 H   0  0  0  0  0  0  0  0  0  0  0  0
  -16.9584  -19.9912    9.9933 H   0  0  0  0  0  0  0  0  0  0  0  0
  -16.3971  -17.5691    9.6155 H   0  0  0  0  0  0  0  0  0  0  0  0
  -16.1947  -18.3985    9.2043 H   0  0  0  0  0  0  0  0  0  0  0  0
  -12.1715  -16.6413    5.7549 H   0  0  0  0  0  0  0  0  0  0  0  0
  -12.6230  -15.0137    5.1932 H   0  0  0  0  0  0  0  0  0  0  0  0
  -14.4910  -17.4057    5.1628 H   0  0  0  0  0  0  0  0  0  0  0  0
  -14.8928  -15.7268    4.6547 H   0  0  0  0  0  0  0  0  0  0  0  0
  1  2  1  0
  2  3  1  0
  3  4  1  0
  4  5  1  0
  5  6  1  0
  6  7  1  0
  7  8  1  0
  2  9  1  0
  9 10  1  0
 10 11  2  0
 10 12  1  0
 12 13  1  0
 13 14  1  0
 14 15  1  0
 15 16  1  0
 16 17  1  0
 17 18  1  0
 18 19  1  0
 13 20  1  0
 20 21  1  0
  8  4  1  0
 21 13  1  0
 19 14  1  0
  1 22  1  0
  1 23  1  0
  1 24  1  0
  2 25  1  0
  3 26  1  0
  3 27  1  0
  5 28  1  0
  5 29  1  0
  6 30  1  0
  6 31  1  0
  7 32  1  0
  7 33  1  0
  8 34  1  0
  8 35  1  0
  9 36  1  0
 12 37  1  0
 14 38  1  0
 15 39  1  0
 15 40  1  0
 16 41  1  0
 16 42  1  0
 17 43  1  0
 17 44  1  0
 19 45  1  0
 19 46  1  0
 20 47  1  0
 20 48  1  0
 21 49  1  0
 21 50  1  0
M  END
>  <Energy>  (732) 
1451.2381518433288

>  <compound_id>  (732) 
48916

>  <target_id>  (732) 
1

>  <reference_id>  (732) 
95

>  <inspiration_ids>  (732) 
[95, 112]

>  <energy_score>  (732) 
1417.0612323006708

>  <distance_score>  (732) 
7.52073120124021

>  <path>  (732) 
/opt/xchem-fragalysis-2/maxwin/BulkDock/SCRATCH/511021/C48916-P95/C48916-P95.minimised.mol

>  <scratch_subdir>  (732) 
/opt/xchem-fragalysis-2/maxwin/BulkDock/SCRATCH/511021/C48916-P95

>  <fragmenstein_runtime>  (732) 
12.48190426826477

>  <fragmenstein_outcome>  (732) 
too moved

>  <fragmenstein_mode>  (732) 
expansion

>  <fragmenstein_error>  (732) 


$$$$
C48916-P112
     RDKit          3D

 50 52  0  0  0  0  0  0  0  0999 V2000
  -10.3515   -8.3846    5.7661 C   0  0  0  0  0  0  0  0  0  0  0  0
   -9.7960   -8.9423    7.5634 C   0  0  0  0  0  0  0  0  0  0  0  0
   -9.4704   -6.7923    7.3823 C   0  0  0  0  0  0  0  0  0  0  0  0
   -8.3077   -5.4764    7.5460 N   0  0  0  0  0  0  0  0  0  0  0  0
   -7.6030   -4.8628    6.3975 C   0  0  0  0  0  0  0  0  0  0  0  0
   -8.5317   -3.8318    5.7537 C   0  0  0  0  0  0  0  0  0  0  0  0
   -9.4857   -3.4654    6.8721 C   0  0  0  0  0  0  0  0  0  0  0  0
   -8.9010   -4.2179    8.0498 C   0  0  0  0  0  0  0  0  0  0  0  0
   -9.8116  -10.7314    8.5090 N   0  0  0  0  0  0  0  0  0  0  0  0
  -11.1530  -11.6627    9.7870 C   0  0  0  0  0  0  0  0  0  0  0  0
  -12.1880  -11.0104    9.8985 O   0  0  0  0  0  0  0  0  0  0  0  0
  -11.0657  -13.4932   10.7155 N   0  0  0  0  0  0  0  0  0  0  0  0
  -12.5305  -14.7555   11.8185 C   0  0  0  0  0  0  0  0  0  0  0  0
  -12.7975  -16.9510   10.9963 C   0  0  0  0  0  0  0  0  0  0  0  0
  -12.9743  -19.0613   10.7241 C   0  0  0  0  0  0  0  0  0  0  0  0
  -12.8964  -20.3198   12.7984 C   0  0  0  0  0  0  0  0  0  0  0  0
  -15.0287  -20.7414   12.9507 C   0  0  0  0  0  0  0  0  0  0  0  0
  -15.6956  -19.8056   11.2451 O   0  0  0  0  0  0  0  0  0  0  0  0
  -14.6507  -18.1339   10.7741 C   0  0  0  0  0  0  0  0  0  0  0  0
  -12.3046  -14.7431   13.4516 C   0  0  0  0  0  0  0  0  0  0  0  0
  -11.0299  -14.9036   12.8658 C   0  0  0  0  0  0  0  0  0  0  0  0
   -9.9897   -9.2969    5.2757 H   0  0  0  0  0  0  0  0  0  0  0  0
  -10.0746   -8.1987    4.7233 H   0  0  0  0  0  0  0  0  0  0  0  0
  -10.4054   -7.3411    5.5445 H   0  0  0  0  0  0  0  0  0  0  0  0
   -9.5186   -9.7704    6.9936 H   0  0  0  0  0  0  0  0  0  0  0  0
  -10.3082   -6.3440    6.9075 H   0  0  0  0  0  0  0  0  0  0  0  0
   -9.3187   -6.4762    6.3346 H   0  0  0  0  0  0  0  0  0  0  0  0
   -7.0532   -5.5263    5.7498 H   0  0  0  0  0  0  0  0  0  0  0  0
   -6.7663   -4.2826    6.8215 H   0  0  0  0  0  0  0  0  0  0  0  0
   -7.9663   -2.9594    5.4092 H   0  0  0  0  0  0  0  0  0  0  0  0
   -9.1045   -4.2123    4.9060 H   0  0  0  0  0  0  0  0  0  0  0  0
   -9.5118   -2.3854    7.0490 H   0  0  0  0  0  0  0  0  0  0  0  0
  -10.4978   -3.7871    6.6252 H   0  0  0  0  0  0  0  0  0  0  0  0
   -8.1119   -3.5676    8.4184 H   0  0  0  0  0  0  0  0  0  0  0  0
   -9.4979   -4.3997    8.9191 H   0  0  0  0  0  0  0  0  0  0  0  0
   -9.0352  -11.3426    8.3597 H   0  0  0  0  0  0  0  0  0  0  0  0
  -10.1828  -13.8512   10.6131 H   0  0  0  0  0  0  0  0  0  0  0  0
  -12.6178  -16.8271    9.8962 H   0  0  0  0  0  0  0  0  0  0  0  0
  -13.6184  -19.4526    9.9233 H   0  0  0  0  0  0  0  0  0  0  0  0
  -12.0897  -18.9809    9.9380 H   0  0  0  0  0  0  0  0  0  0  0  0
  -12.8512  -19.8431   13.7998 H   0  0  0  0  0  0  0  0  0  0  0  0
  -12.5274  -21.3960   12.8390 H   0  0  0  0  0  0  0  0  0  0  0  0
  -15.6288  -20.2043   13.6674 H   0  0  0  0  0  0  0  0  0  0  0  0
  -15.3429  -21.7992   12.8265 H   0  0  0  0  0  0  0  0  0  0  0  0
  -15.4579  -17.8619   11.4167 H   0  0  0  0  0  0  0  0  0  0  0  0
  -15.1272  -18.0237    9.8594 H   0  0  0  0  0  0  0  0  0  0  0  0
  -12.4553  -15.5121   14.2102 H   0  0  0  0  0  0  0  0  0  0  0  0
  -12.6932  -13.9759   14.0783 H   0  0  0  0  0  0  0  0  0  0  0  0
  -10.5627  -15.8653   13.0054 H   0  0  0  0  0  0  0  0  0  0  0  0
  -10.3348  -14.0778   12.8896 H   0  0  0  0  0  0  0  0  0  0  0  0
  1  2  1  0
  2  3  1  0
  3  4  1  0
  4  5  1  0
  5  6  1  0
  6  7  1  0
  7  8  1  0
  2  9  1  0
  9 10  1  0
 10 11  2  0
 10 12  1  0
 12 13  1  0
 13 14  1  0
 14 15  1  0
 15 16  1  0
 16 17  1  0
 17 18  1  0
 18 19  1  0
 13 20  1  0
 20 21  1  0
  8  4  1  0
 21 13  1  0
 19 14  1  0
  1 22  1  0
  1 23  1  0
  1 24  1  0
  2 25  1  0
  3 26  1  0
  3 27  1  0
  5 28  1  0
  5 29  1  0
  6 30  1  0
  6 31  1  0
  7 32  1  0
  7 33  1  0
  8 34  1  0
  8 35  1  0
  9 36  1  0
 12 37  1  0
 14 38  1  0
 15 39  1  0
 15 40  1  0
 16 41  1  0
 16 42  1  0
 17 43  1  0
 17 44  1  0
 19 45  1  0
 19 46  1  0
 20 47  1  0
 20 48  1  0
 21 49  1  0
 21 50  1  0
M  END
>  <Energy>  (733) 
2512.9996247962918

>  <compound_id>  (733) 
48916

>  <target_id>  (733) 
1

>  <reference_id>  (733) 
112

>  <inspiration_ids>  (733) 
[95, 112]

>  <energy_score>  (733) 
2478.8227052536445

>  <distance_score>  (733) 
6.470826172720841

>  <path>  (733) 
/opt/xchem-fragalysis-2/maxwin/BulkDock/SCRATCH/511021/C48916-P112/C48916-P112.minimised.mol

>  <scratch_subdir>  (733) 
/opt/xchem-fragalysis-2/maxwin/BulkDock/SCRATCH/511021/C48916-P112

>  <fragmenstein_runtime>  (733) 
14.40389347076416

>  <fragmenstein_outcome>  (733) 
too moved

>  <fragmenstein_mode>  (733) 
expansion

>  <fragmenstein_error>  (733) 


$$$$
C48917-P95
     RDKit          3D

 50 52  0  0  0  0  0  0  0  0999 V2000
  -10.0781   -5.6916    6.0985 C   0  0  0  0  0  0  0  0  0  0  0  0
  -10.8840   -5.7438    4.7930 C   0  0  0  0  0  0  0  0  0  0  0  0
  -10.2136   -3.9867    4.5347 C   0  0  0  0  0  0  0  0  0  0  0  0
   -8.8086   -3.6691    4.0075 N   0  0  0  0  0  0  0  0  0  0  0  0
   -7.8580   -3.2956    5.0931 C   0  0  0  0  0  0  0  0  0  0  0  0
   -8.1163   -1.8345    5.4363 C   0  0  0  0  0  0  0  0  0  0  0  0
   -8.8250   -1.2735    4.2178 C   0  0  0  0  0  0  0  0  0  0  0  0
   -8.8045   -2.4141    3.2142 C   0  0  0  0  0  0  0  0  0  0  0  0
  -12.2660   -6.8175    4.0370 N   0  0  0  0  0  0  0  0  0  0  0  0
  -13.4784   -7.9167    4.8035 C   0  0  0  0  0  0  0  0  0  0  0  0
  -13.7004   -8.1228    5.9616 O   0  0  0  0  0  0  0  0  0  0  0  0
  -14.1509   -8.4777    3.5580 N   0  0  0  0  0  0  0  0  0  0  0  0
  -15.3284   -9.3570    3.4131 C   0  0  0  0  0  0  0  0  0  0  0  0
  -15.3617  -10.9428    3.7474 C   0  0  0  0  0  0  0  0  0  0  0  0
  -14.6563  -11.8603    2.7462 C   0  0  0  0  0  0  0  0  0  0  0  0
  -15.0798  -13.3366    2.9365 C   0  0  0  0  0  0  0  0  0  0  0  0
  -15.5147  -13.6378    4.3676 C   0  0  0  0  0  0  0  0  0  0  0  0
  -14.7587  -12.7063    5.2912 C   0  0  0  0  0  0  0  0  0  0  0  0
  -15.0563  -11.3043    5.1051 O   0  0  0  0  0  0  0  0  0  0  0  0
  -16.6537   -8.6462    3.6861 C   0  0  0  0  0  0  0  0  0  0  0  0
  -16.2646   -8.9485    2.2758 C   0  0  0  0  0  0  0  0  0  0  0  0
  -10.4801   -4.8165    6.5922 H   0  0  0  0  0  0  0  0  0  0  0  0
   -9.0501   -5.3581    6.1361 H   0  0  0  0  0  0  0  0  0  0  0  0
  -10.0254   -6.6091    6.6352 H   0  0  0  0  0  0  0  0  0  0  0  0
  -10.2775   -6.3645    4.1597 H   0  0  0  0  0  0  0  0  0  0  0  0
  -10.3115   -3.4243    5.4755 H   0  0  0  0  0  0  0  0  0  0  0  0
  -10.8381   -3.4023    3.9089 H   0  0  0  0  0  0  0  0  0  0  0  0
   -6.8417   -3.3943    4.6875 H   0  0  0  0  0  0  0  0  0  0  0  0
   -7.8680   -3.9098    5.9915 H   0  0  0  0  0  0  0  0  0  0  0  0
   -7.1795   -1.3046    5.6376 H   0  0  0  0  0  0  0  0  0  0  0  0
   -8.7550   -1.7399    6.3215 H   0  0  0  0  0  0  0  0  0  0  0  0
   -8.3259   -0.3807    3.8287 H   0  0  0  0  0  0  0  0  0  0  0  0
   -9.8546   -0.9994    4.4752 H   0  0  0  0  0  0  0  0  0  0  0  0
   -9.6169   -2.3426    2.4855 H   0  0  0  0  0  0  0  0  0  0  0  0
   -7.8736   -2.3784    2.6326 H   0  0  0  0  0  0  0  0  0  0  0  0
  -12.3552   -6.8373    3.0633 H   0  0  0  0  0  0  0  0  0  0  0  0
  -13.6589   -8.1551    2.7405 H   0  0  0  0  0  0  0  0  0  0  0  0
  -16.4289  -11.1924    3.6521 H   0  0  0  0  0  0  0  0  0  0  0  0
  -13.5781  -11.7923    2.8921 H   0  0  0  0  0  0  0  0  0  0  0  0
  -14.8551  -11.5524    1.7140 H   0  0  0  0  0  0  0  0  0  0  0  0
  -14.2405  -13.9821    2.6507 H   0  0  0  0  0  0  0  0  0  0  0  0
  -15.9034  -13.5776    2.2541 H   0  0  0  0  0  0  0  0  0  0  0  0
  -16.5925  -13.4647    4.4674 H   0  0  0  0  0  0  0  0  0  0  0  0
  -15.3191  -14.6871    4.6111 H   0  0  0  0  0  0  0  0  0  0  0  0
  -13.6916  -12.8404    5.0980 H   0  0  0  0  0  0  0  0  0  0  0  0
  -14.9648  -12.9657    6.3308 H   0  0  0  0  0  0  0  0  0  0  0  0
  -16.6170   -7.6168    4.0253 H   0  0  0  0  0  0  0  0  0  0  0  0
  -17.4687   -9.2114    4.1213 H   0  0  0  0  0  0  0  0  0  0  0  0
  -15.9812   -8.1176    1.6405 H   0  0  0  0  0  0  0  0  0  0  0  0
  -16.8174   -9.7207    1.7521 H   0  0  0  0  0  0  0  0  0  0  0  0
  1  2  1  0
  2  3  1  0
  3  4  1  0
  4  5  1  0
  5  6  1  0
  6  7  1  0
  7  8  1  0
  2  9  1  0
  9 10  1  0
 10 11  2  0
 10 12  1  0
 12 13  1  0
 13 14  1  0
 14 15  1  0
 15 16  1  0
 16 17  1  0
 17 18  1  0
 18 19  1  0
 13 20  1  0
 20 21  1  0
  8  4  1  0
 21 13  1  0
 19 14  1  0
  1 22  1  0
  1 23  1  0
  1 24  1  0
  2 25  1  0
  3 26  1  0
  3 27  1  0
  5 28  1  0
  5 29  1  0
  6 30  1  0
  6 31  1  0
  7 32  1  0
  7 33  1  0
  8 34  1  0
  8 35  1  0
  9 36  1  0
 12 37  1  0
 14 38  1  0
 15 39  1  0
 15 40  1  0
 16 41  1  0
 16 42  1  0
 17 43  1  0
 17 44  1  0
 18 45  1  0
 18 46  1  0
 20 47  1  0
 20 48  1  0
 21 49  1  0
 21 50  1  0
M  END
>  <Energy>  (734) 
225.92144745348665

>  <compound_id>  (734) 
48917

>  <target_id>  (734) 
1

>  <reference_id>  (734) 
95

>  <inspiration_ids>  (734) 
[95, 112]

>  <energy_score>  (734) 
192.9642965450803

>  <distance_score>  (734) 
9.853653427398612

>  <path>  (734) 
/opt/xchem-fragalysis-2/maxwin/BulkDock/SCRATCH/511021/C48917-P95/C48917-P95.minimised.mol

>  <scratch_subdir>  (734) 
/opt/xchem-fragalysis-2/maxwin/BulkDock/SCRATCH/511021/C48917-P95

>  <fragmenstein_runtime>  (734) 
12.888501405715942

>  <fragmenstein_outcome>  (734) 
too moved

>  <fragmenstein_mode>  (734) 
expansion

>  <fragmenstein_error>  (734) 


$$$$
C48917-P112
     RDKit          3D

 50 52  0  0  0  0  0  0  0  0999 V2000
   -9.8325   -9.5767    3.0767 C   0  0  0  0  0  0  0  0  0  0  0  0
   -9.6997   -9.8653    5.1233 C   0  0  0  0  0  0  0  0  0  0  0  0
  -10.2048   -7.9365    5.5109 C   0  0  0  0  0  0  0  0  0  0  0  0
   -9.8035   -6.2259    6.1656 N   0  0  0  0  0  0  0  0  0  0  0  0
   -8.5886   -5.4506    6.6957 C   0  0  0  0  0  0  0  0  0  0  0  0
   -8.6229   -3.9721    6.2789 C   0  0  0  0  0  0  0  0  0  0  0  0
   -9.4724   -3.9831    5.0539 C   0  0  0  0  0  0  0  0  0  0  0  0
  -10.4152   -5.1331    5.3978 C   0  0  0  0  0  0  0  0  0  0  0  0
   -9.5779  -11.6280    6.2239 N   0  0  0  0  0  0  0  0  0  0  0  0
   -9.9455  -12.7162    6.2340 C   0  0  0  0  0  0  0  0  0  0  0  0
  -10.6724  -12.7604    4.8006 O   0  0  0  0  0  0  0  0  0  0  0  0
  -10.0832  -14.2609    7.6151 N   0  0  0  0  0  0  0  0  0  0  0  0
  -11.3342  -16.2048    7.7428 C   0  0  0  0  0  0  0  0  0  0  0  0
  -11.9744  -17.9998    9.2341 C   0  0  0  0  0  0  0  0  0  0  0  0
  -12.9176  -19.3943   10.8103 C   0  0  0  0  0  0  0  0  0  0  0  0
  -12.7557  -21.0518   12.5974 C   0  0  0  0  0  0  0  0  0  0  0  0
  -13.5359  -22.6087   11.3033 C   0  0  0  0  0  0  0  0  0  0  0  0
  -13.4645  -21.5439    9.4077 C   0  0  0  0  0  0  0  0  0  0  0  0
  -12.1551  -20.0233    9.0628 O   0  0  0  0  0  0  0  0  0  0  0  0
  -12.6103  -15.5197    6.5956 C   0  0  0  0  0  0  0  0  0  0  0  0
  -11.7981  -16.5231    6.0133 C   0  0  0  0  0  0  0  0  0  0  0  0
  -10.1077   -8.5375    2.8816 H   0  0  0  0  0  0  0  0  0  0  0  0
   -9.5693  -10.5363    2.5695 H   0  0  0  0  0  0  0  0  0  0  0  0
   -9.1978   -9.4192    2.1544 H   0  0  0  0  0  0  0  0  0  0  0  0
   -9.6494  -10.7500    4.4355 H   0  0  0  0  0  0  0  0  0  0  0  0
  -10.6730   -8.1389    6.4029 H   0  0  0  0  0  0  0  0  0  0  0  0
  -10.6277   -7.5250    4.5917 H   0  0  0  0  0  0  0  0  0  0  0  0
   -7.5913   -5.7841    6.4031 H   0  0  0  0  0  0  0  0  0  0  0  0
   -8.6196   -5.3689    7.7642 H   0  0  0  0  0  0  0  0  0  0  0  0
   -7.6239   -3.5657    6.0926 H   0  0  0  0  0  0  0  0  0  0  0  0
   -9.0939   -3.3663    7.0636 H   0  0  0  0  0  0  0  0  0  0  0  0
   -9.9881   -3.0271    4.9230 H   0  0  0  0  0  0  0  0  0  0  0  0
   -8.8737   -4.1373    4.1551 H   0  0  0  0  0  0  0  0  0  0  0  0
  -11.0575   -4.6432    6.1181 H   0  0  0  0  0  0  0  0  0  0  0  0
  -10.9938   -5.5340    4.5893 H   0  0  0  0  0  0  0  0  0  0  0  0
   -9.1882  -10.8501    6.6100 H   0  0  0  0  0  0  0  0  0  0  0  0
   -9.6133  -13.9541    8.4783 H   0  0  0  0  0  0  0  0  0  0  0  0
  -12.9420  -17.5123    9.4288 H   0  0  0  0  0  0  0  0  0  0  0  0
  -12.5537  -20.0947   12.4054 H   0  0  0  0  0  0  0  0  0  0  0  0
  -12.7430  -20.0188   12.4638 H   0  0  0  0  0  0  0  0  0  0  0  0
  -13.6160  -21.2025   13.4136 H   0  0  0  0  0  0  0  0  0  0  0  0
  -11.7226  -21.6502   12.7362 H   0  0  0  0  0  0  0  0  0  0  0  0
  -14.5346  -23.0143   11.5623 H   0  0  0  0  0  0  0  0  0  0  0  0
  -12.7885  -23.4385   11.3227 H   0  0  0  0  0  0  0  0  0  0  0  0
  -13.0543  -22.2895    8.6954 H   0  0  0  0  0  0  0  0  0  0  0  0
  -14.4887  -21.2364    9.1800 H   0  0  0  0  0  0  0  0  0  0  0  0
  -12.5304  -14.5419    6.1527 H   0  0  0  0  0  0  0  0  0  0  0  0
  -13.6661  -15.7222    6.4215 H   0  0  0  0  0  0  0  0  0  0  0  0
  -12.2457  -17.4279    5.6125 H   0  0  0  0  0  0  0  0  0  0  0  0
  -11.4293  -16.1769    5.0823 H   0  0  0  0  0  0  0  0  0  0  0  0
  1  2  1  0
  2  3  1  0
  3  4  1  0
  4  5  1  0
  5  6  1  0
  6  7  1  0
  7  8  1  0
  2  9  1  0
  9 10  1  0
 10 11  2  0
 10 12  1  0
 12 13  1  0
 13 14  1  0
 14 15  1  0
 15 16  1  0
 16 17  1  0
 17 18  1  0
 18 19  1  0
 13 20  1  0
 20 21  1  0
  8  4  1  0
 21 13  1  0
 19 14  1  0
  1 22  1  0
  1 23  1  0
  1 24  1  0
  2 25  1  0
  3 26  1  0
  3 27  1  0
  5 28  1  0
  5 29  1  0
  6 30  1  0
  6 31  1  0
  7 32  1  0
  7 33  1  0
  8 34  1  0
  8 35  1  0
  9 36  1  0
 12 37  1  0
 14 38  1  0
 15 39  1  0
 15 40  1  0
 16 41  1  0
 16 42  1  0
 17 43  1  0
 17 44  1  0
 18 45  1  0
 18 46  1  0
 20 47  1  0
 20 48  1  0
 21 49  1  0
 21 50  1  0
M  END
>  <Energy>  (735) 
3505.2430061880873

>  <compound_id>  (735) 
48917

>  <target_id>  (735) 
1

>  <reference_id>  (735) 
112

>  <inspiration_ids>  (735) 
[95, 112]

>  <energy_score>  (735) 
3472.285855279669

>  <distance_score>  (735) 
6.819345100856557

>  <path>  (735) 
/opt/xchem-fragalysis-2/maxwin/BulkDock/SCRATCH/511021/C48917-P112/C48917-P112.minimised.mol

>  <scratch_subdir>  (735) 
/opt/xchem-fragalysis-2/maxwin/BulkDock/SCRATCH/511021/C48917-P112

>  <fragmenstein_runtime>  (735) 
9.433042287826538

>  <fragmenstein_outcome>  (735) 
too moved

>  <fragmenstein_mode>  (735) 
expansion

>  <fragmenstein_error>  (735) 


$$$$
C48918-P95
     RDKit          3D

 46 48  0  0  0  0  0  0  0  0999 V2000
  -10.5805   -7.0014    4.7157 C   0  0  0  0  0  0  0  0  0  0  0  0
  -10.1062   -7.8215    6.4491 C   0  0  0  0  0  0  0  0  0  0  0  0
   -9.5897   -5.9291    6.7231 C   0  0  0  0  0  0  0  0  0  0  0  0
   -8.6610   -4.9453    7.4735 N   0  0  0  0  0  0  0  0  0  0  0  0
   -7.4014   -4.6186    6.7367 C   0  0  0  0  0  0  0  0  0  0  0  0
   -7.5693   -3.4364    5.7906 C   0  0  0  0  0  0  0  0  0  0  0  0
   -8.9193   -2.8837    6.1295 C   0  0  0  0  0  0  0  0  0  0  0  0
   -9.2560   -3.5509    7.4519 C   0  0  0  0  0  0  0  0  0  0  0  0
  -10.2449   -9.2201    7.9353 N   0  0  0  0  0  0  0  0  0  0  0  0
   -9.6004  -10.6377    8.0929 C   0  0  0  0  0  0  0  0  0  0  0  0
   -8.8100  -11.1998    7.4248 O   0  0  0  0  0  0  0  0  0  0  0  0
  -10.4105  -11.1687    9.7114 N   0  0  0  0  0  0  0  0  0  0  0  0
  -10.1128  -12.5165   10.6710 C   0  0  0  0  0  0  0  0  0  0  0  0
  -10.8415  -13.3238   11.4942 C   0  0  0  0  0  0  0  0  0  0  0  0
  -10.2397  -13.6583   12.7029 N   0  0  0  0  0  0  0  0  0  0  0  0
  -10.6790  -14.3194   13.9276 C   0  0  0  0  0  0  0  0  0  0  0  0
  -12.1363  -14.2736   14.3296 C   0  0  0  0  0  0  0  0  0  0  0  0
  -12.2288  -15.3271   15.4054 C   0  0  0  0  0  0  0  0  0  0  0  0
  -11.3186  -16.3655   15.0523 O   0  0  0  0  0  0  0  0  0  0  0  0
  -10.3469  -15.8034   14.1429 C   0  0  0  0  0  0  0  0  0  0  0  0
   -9.1118  -12.9524   12.7568 N   0  0  0  0  0  0  0  0  0  0  0  0
   -8.9201  -12.4708   11.5402 N   0  0  0  0  0  0  0  0  0  0  0  0
  -10.3647   -5.9375    4.6762 H   0  0  0  0  0  0  0  0  0  0  0  0
  -10.1457   -7.4369    3.8218 H   0  0  0  0  0  0  0  0  0  0  0  0
  -11.6074   -6.7217    4.3858 H   0  0  0  0  0  0  0  0  0  0  0  0
  -10.0060   -8.5750    5.6580 H   0  0  0  0  0  0  0  0  0  0  0  0
  -10.4632   -5.3357    6.4277 H   0  0  0  0  0  0  0  0  0  0  0  0
   -9.1784   -5.5780    5.8471 H   0  0  0  0  0  0  0  0  0  0  0  0
   -6.9668   -5.4584    6.2079 H   0  0  0  0  0  0  0  0  0  0  0  0
   -6.6814   -4.2923    7.4816 H   0  0  0  0  0  0  0  0  0  0  0  0
   -7.5185   -3.7292    4.7379 H   0  0  0  0  0  0  0  0  0  0  0  0
   -6.7834   -2.6923    5.9631 H   0  0  0  0  0  0  0  0  0  0  0  0
   -9.6451   -3.1661    5.3579 H   0  0  0  0  0  0  0  0  0  0  0  0
   -8.9177   -1.7923    6.2057 H   0  0  0  0  0  0  0  0  0  0  0  0
   -8.8197   -2.9800    8.2791 H   0  0  0  0  0  0  0  0  0  0  0  0
  -10.3375   -3.5068    7.5386 H   0  0  0  0  0  0  0  0  0  0  0  0
  -10.9338   -9.0942    8.6313 H   0  0  0  0  0  0  0  0  0  0  0  0
  -10.9700  -10.4303   10.0620 H   0  0  0  0  0  0  0  0  0  0  0  0
  -11.8652  -13.6000   11.3755 H   0  0  0  0  0  0  0  0  0  0  0  0
  -10.1483  -13.7775   14.7275 H   0  0  0  0  0  0  0  0  0  0  0  0
  -12.4442  -13.3088   14.7356 H   0  0  0  0  0  0  0  0  0  0  0  0
  -12.7777  -14.5113   13.4825 H   0  0  0  0  0  0  0  0  0  0  0  0
  -11.9207  -14.9265   16.3775 H   0  0  0  0  0  0  0  0  0  0  0  0
  -13.2435  -15.7131   15.5020 H   0  0  0  0  0  0  0  0  0  0  0  0
   -9.3658  -15.9303   14.6121 H   0  0  0  0  0  0  0  0  0  0  0  0
  -10.3609  -16.3892   13.2272 H   0  0  0  0  0  0  0  0  0  0  0  0
  1  2  1  0
  2  3  1  0
  3  4  1  0
  4  5  1  0
  5  6  1  0
  6  7  1  0
  7  8  1  0
  2  9  1  0
  9 10  1  0
 10 11  2  0
 10 12  1  0
 12 13  1  0
 13 14  2  0
 14 15  1  0
 15 16  1  0
 16 17  1  0
 17 18  1  0
 18 19  1  0
 19 20  1  0
 15 21  1  0
 21 22  2  0
  8  4  1  0
 22 13  1  0
 20 16  1  0
  1 23  1  0
  1 24  1  0
  1 25  1  0
  2 26  1  0
  3 27  1  0
  3 28  1  0
  5 29  1  0
  5 30  1  0
  6 31  1  0
  6 32  1  0
  7 33  1  0
  7 34  1  0
  8 35  1  0
  8 36  1  0
  9 37  1  0
 12 38  1  0
 14 39  1  0
 16 40  1  0
 17 41  1  0
 17 42  1  0
 18 43  1  0
 18 44  1  0
 20 45  1  0
 20 46  1  0
M  END
>  <Energy>  (736) 
464.90996674793683

>  <compound_id>  (736) 
48918

>  <target_id>  (736) 
1

>  <reference_id>  (736) 
95

>  <inspiration_ids>  (736) 
[95, 112]

>  <energy_score>  (736) 
474.6079475541989

>  <distance_score>  (736) 
9.031024532284313

>  <path>  (736) 
/opt/xchem-fragalysis-2/maxwin/BulkDock/SCRATCH/511021/C48918-P95/C48918-P95.minimised.mol

>  <scratch_subdir>  (736) 
/opt/xchem-fragalysis-2/maxwin/BulkDock/SCRATCH/511021/C48918-P95

>  <fragmenstein_runtime>  (736) 
9.889783382415771

>  <fragmenstein_outcome>  (736) 
too moved

>  <fragmenstein_mode>  (736) 
expansion

>  <fragmenstein_error>  (736) 


$$$$
C48918-P112
     RDKit          3D

 46 48  0  0  0  0  0  0  0  0999 V2000
   -4.4978   -6.5017   11.3771 C   0  0  0  0  0  0  0  0  0  0  0  0
   -5.6949   -7.1357   10.7115 C   0  0  0  0  0  0  0  0  0  0  0  0
   -6.7502   -5.9255    9.5383 C   0  0  0  0  0  0  0  0  0  0  0  0
   -7.2661   -4.9192    8.1924 N   0  0  0  0  0  0  0  0  0  0  0  0
   -6.5761   -4.2872    7.0456 C   0  0  0  0  0  0  0  0  0  0  0  0
   -7.4687   -3.1743    6.4863 C   0  0  0  0  0  0  0  0  0  0  0  0
   -8.6046   -3.0799    7.4625 C   0  0  0  0  0  0  0  0  0  0  0  0
   -8.6421   -4.4750    8.0473 C   0  0  0  0  0  0  0  0  0  0  0  0
   -6.4291   -8.1634   11.7404 N   0  0  0  0  0  0  0  0  0  0  0  0
   -5.8384   -9.1405   12.7869 C   0  0  0  0  0  0  0  0  0  0  0  0
   -4.7165   -9.3031   13.1319 O   0  0  0  0  0  0  0  0  0  0  0  0
   -7.1415   -9.9241   13.1786 N   0  0  0  0  0  0  0  0  0  0  0  0
   -7.3149  -11.0806   13.9611 C   0  0  0  0  0  0  0  0  0  0  0  0
   -8.5515  -11.7000   14.1467 C   0  0  0  0  0  0  0  0  0  0  0  0
   -8.2957  -12.9180   14.7455 N   0  0  0  0  0  0  0  0  0  0  0  0
   -9.2419  -13.8606   15.3291 C   0  0  0  0  0  0  0  0  0  0  0  0
  -10.4410  -14.2613   14.4714 C   0  0  0  0  0  0  0  0  0  0  0  0
  -10.7034  -15.7235   14.7991 C   0  0  0  0  0  0  0  0  0  0  0  0
   -9.8283  -16.0947   15.8644 O   0  0  0  0  0  0  0  0  0  0  0  0
   -8.6952  -15.2124   15.7904 C   0  0  0  0  0  0  0  0  0  0  0  0
   -6.9665  -13.0416   14.9320 N   0  0  0  0  0  0  0  0  0  0  0  0
   -6.3634  -11.9482   14.4377 N   0  0  0  0  0  0  0  0  0  0  0  0
   -3.8232   -7.2683   11.7723 H   0  0  0  0  0  0  0  0  0  0  0  0
   -4.8220   -5.9091   12.2320 H   0  0  0  0  0  0  0  0  0  0  0  0
   -3.9081   -5.9195   10.6719 H   0  0  0  0  0  0  0  0  0  0  0  0
   -5.3510   -7.9854   10.0993 H   0  0  0  0  0  0  0  0  0  0  0  0
   -7.2381   -5.1734   10.1565 H   0  0  0  0  0  0  0  0  0  0  0  0
   -7.1468   -6.9018    9.2283 H   0  0  0  0  0  0  0  0  0  0  0  0
   -6.4794   -5.0052    6.2331 H   0  0  0  0  0  0  0  0  0  0  0  0
   -5.6143   -3.8210    7.2733 H   0  0  0  0  0  0  0  0  0  0  0  0
   -6.9367   -2.2222    6.3924 H   0  0  0  0  0  0  0  0  0  0  0  0
   -7.8421   -3.4518    5.4933 H   0  0  0  0  0  0  0  0  0  0  0  0
   -8.3793   -2.3344    8.2310 H   0  0  0  0  0  0  0  0  0  0  0  0
   -9.5468   -2.8009    6.9817 H   0  0  0  0  0  0  0  0  0  0  0  0
   -9.2006   -4.4672    8.9704 H   0  0  0  0  0  0  0  0  0  0  0  0
   -9.0955   -5.1406    7.3080 H   0  0  0  0  0  0  0  0  0  0  0  0
   -7.4036   -8.3433   11.6324 H   0  0  0  0  0  0  0  0  0  0  0  0
   -7.9395   -9.4745   12.7698 H   0  0  0  0  0  0  0  0  0  0  0  0
   -9.5558  -11.4028   13.8862 H   0  0  0  0  0  0  0  0  0  0  0  0
   -9.6312  -13.3424   16.2172 H   0  0  0  0  0  0  0  0  0  0  0  0
  -10.2857  -14.1198   13.3972 H   0  0  0  0  0  0  0  0  0  0  0  0
  -11.3134  -13.6517   14.7340 H   0  0  0  0  0  0  0  0  0  0  0  0
  -11.7352  -15.8952   15.1142 H   0  0  0  0  0  0  0  0  0  0  0  0
  -10.4739  -16.3644   13.9435 H   0  0  0  0  0  0  0  0  0  0  0  0
   -7.9620  -15.6460   15.1044 H   0  0  0  0  0  0  0  0  0  0  0  0
   -8.2301  -15.1488   16.7794 H   0  0  0  0  0  0  0  0  0  0  0  0
  1  2  1  0
  2  3  1  0
  3  4  1  0
  4  5  1  0
  5  6  1  0
  6  7  1  0
  7  8  1  0
  2  9  1  0
  9 10  1  0
 10 11  2  0
 10 12  1  0
 12 13  1  0
 13 14  2  0
 14 15  1  0
 15 16  1  0
 16 17  1  0
 17 18  1  0
 18 19  1  0
 19 20  1  0
 15 21  1  0
 21 22  2  0
  8  4  1  0
 22 13  1  0
 20 16  1  0
  1 23  1  0
  1 24  1  0
  1 25  1  0
  2 26  1  0
  3 27  1  0
  3 28  1  0
  5 29  1  0
  5 30  1  0
  6 31  1  0
  6 32  1  0
  7 33  1  0
  7 34  1  0
  8 35  1  0
  8 36  1  0
  9 37  1  0
 12 38  1  0
 14 39  1  0
 16 40  1  0
 17 41  1  0
 17 42  1  0
 18 43  1  0
 18 44  1  0
 20 45  1  0
 20 46  1  0
M  END
>  <Energy>  (737) 
151.79210992879155

>  <compound_id>  (737) 
48918

>  <target_id>  (737) 
1

>  <reference_id>  (737) 
112

>  <inspiration_ids>  (737) 
[95, 112]

>  <energy_score>  (737) 
161.49009073505442

>  <distance_score>  (737) 
10.183492026059104

>  <path>  (737) 
/opt/xchem-fragalysis-2/maxwin/BulkDock/SCRATCH/511021/C48918-P112/C48918-P112.minimised.mol

>  <scratch_subdir>  (737) 
/opt/xchem-fragalysis-2/maxwin/BulkDock/SCRATCH/511021/C48918-P112

>  <fragmenstein_runtime>  (737) 
14.665328025817871

>  <fragmenstein_outcome>  (737) 
too moved

>  <fragmenstein_mode>  (737) 
expansion

>  <fragmenstein_error>  (737) 


$$$$
C48919-P95
     RDKit          3D

 48 50  0  0  0  0  0  0  0  0999 V2000
  -12.2769  -13.2278    3.7139 C   0  0  0  0  0  0  0  0  0  0  0  0
  -12.3210  -12.7483    5.1905 C   0  0  0  0  0  0  0  0  0  0  0  0
  -11.3926  -10.7603    5.2613 C   0  0  0  0  0  0  0  0  0  0  0  0
  -10.5973   -8.8494    5.6679 N   0  0  0  0  0  0  0  0  0  0  0  0
  -10.1713   -7.2316    6.5732 C   0  0  0  0  0  0  0  0  0  0  0  0
   -9.9181   -5.5220    6.2793 C   0  0  0  0  0  0  0  0  0  0  0  0
  -10.4050   -5.5498    4.9313 C   0  0  0  0  0  0  0  0  0  0  0  0
  -10.6255   -7.2454    4.4981 C   0  0  0  0  0  0  0  0  0  0  0  0
  -12.5404  -14.2929    6.5949 N   0  0  0  0  0  0  0  0  0  0  0  0
  -12.0905  -16.1198    6.5670 C   0  0  0  0  0  0  0  0  0  0  0  0
  -11.6652  -16.6277    5.5627 O   0  0  0  0  0  0  0  0  0  0  0  0
  -12.2982  -16.8756    8.3987 N   0  0  0  0  0  0  0  0  0  0  0  0
  -12.0056  -18.7192    9.1312 C   0  0  0  0  0  0  0  0  0  0  0  0
  -13.0798  -19.2746   10.5352 C   0  0  0  0  0  0  0  0  0  0  0  0
  -12.3341  -20.3283   12.4267 C   0  0  0  0  0  0  0  0  0  0  0  0
  -11.0920  -21.6869   11.9371 C   0  0  0  0  0  0  0  0  0  0  0  0
  -10.8257  -22.8952   12.7886 C   0  0  0  0  0  0  0  0  0  0  0  0
   -9.7252  -22.5038   13.7309 C   0  0  0  0  0  0  0  0  0  0  0  0
   -8.6170  -22.4054   12.7149 C   0  0  0  0  0  0  0  0  0  0  0  0
   -8.7559  -23.6398   11.9690 O   0  0  0  0  0  0  0  0  0  0  0  0
  -10.1417  -24.0239   12.0495 C   0  0  0  0  0  0  0  0  0  0  0  0
  -10.7256  -21.6821   10.1287 N   0  0  0  0  0  0  0  0  0  0  0  0
  -11.1126  -20.2678    8.9422 N   0  0  0  0  0  0  0  0  0  0  0  0
  -12.8813  -14.1327    3.5973 H   0  0  0  0  0  0  0  0  0  0  0  0
  -12.6887  -12.4498    3.0621 H   0  0  0  0  0  0  0  0  0  0  0  0
  -11.2672  -13.4401    3.3502 H   0  0  0  0  0  0  0  0  0  0  0  0
  -13.3811  -12.3987    5.2107 H   0  0  0  0  0  0  0  0  0  0  0  0
  -10.4166  -11.1199    5.5403 H   0  0  0  0  0  0  0  0  0  0  0  0
  -12.3743  -10.4383    5.6410 H   0  0  0  0  0  0  0  0  0  0  0  0
   -9.4957   -7.0161    7.4425 H   0  0  0  0  0  0  0  0  0  0  0  0
   -9.6138   -7.0146    5.8113 H   0  0  0  0  0  0  0  0  0  0  0  0
  -10.4379   -4.6387    6.6628 H   0  0  0  0  0  0  0  0  0  0  0  0
   -8.8570   -5.2562    6.4208 H   0  0  0  0  0  0  0  0  0  0  0  0
  -11.3593   -5.1569    4.9525 H   0  0  0  0  0  0  0  0  0  0  0  0
   -9.8253   -4.7633    4.4422 H   0  0  0  0  0  0  0  0  0  0  0  0
  -10.1027   -7.4750    3.5755 H   0  0  0  0  0  0  0  0  0  0  0  0
  -11.6711   -6.8498    4.2716 H   0  0  0  0  0  0  0  0  0  0  0  0
  -12.9365  -14.0883    7.4405 H   0  0  0  0  0  0  0  0  0  0  0  0
  -12.7588  -16.2443    9.0156 H   0  0  0  0  0  0  0  0  0  0  0  0
  -13.9635  -18.5521   10.4115 H   0  0  0  0  0  0  0  0  0  0  0  0
  -12.6929  -20.2365   13.4440 H   0  0  0  0  0  0  0  0  0  0  0  0
  -11.7494  -23.2576   13.2377 H   0  0  0  0  0  0  0  0  0  0  0  0
   -9.9106  -21.5866   14.2784 H   0  0  0  0  0  0  0  0  0  0  0  0
   -9.5350  -23.3007   14.4582 H   0  0  0  0  0  0  0  0  0  0  0  0
   -7.6159  -22.2313   13.0996 H   0  0  0  0  0  0  0  0  0  0  0  0
   -8.7465  -21.5746   12.0149 H   0  0  0  0  0  0  0  0  0  0  0  0
  -10.5521  -24.2402   11.0640 H   0  0  0  0  0  0  0  0  0  0  0  0
  -10.1785  -24.9518   12.6323 H   0  0  0  0  0  0  0  0  0  0  0  0
  1  2  1  0
  2  3  1  0
  3  4  1  0
  4  5  1  0
  5  6  1  0
  6  7  1  0
  7  8  1  0
  2  9  1  0
  9 10  1  0
 10 11  2  0
 10 12  1  0
 12 13  1  0
 13 14  2  0
 14 15  1  0
 15 16  2  0
 16 17  1  0
 17 18  1  0
 18 19  1  0
 19 20  1  0
 20 21  1  0
 16 22  1  0
 22 23  2  0
  8  4  1  0
 23 13  1  0
 21 17  1  0
  1 24  1  0
  1 25  1  0
  1 26  1  0
  2 27  1  0
  3 28  1  0
  3 29  1  0
  5 30  1  0
  5 31  1  0
  6 32  1  0
  6 33  1  0
  7 34  1  0
  7 35  1  0
  8 36  1  0
  8 37  1  0
  9 38  1  0
 12 39  1  0
 14 40  1  0
 15 41  1  0
 17 42  1  0
 18 43  1  0
 18 44  1  0
 19 45  1  0
 19 46  1  0
 21 47  1  0
 21 48  1  0
M  END
>  <Energy>  (738) 
1928.8201645273091

>  <compound_id>  (738) 
48919

>  <target_id>  (738) 
1

>  <reference_id>  (738) 
95

>  <inspiration_ids>  (738) 
[95, 112]

>  <energy_score>  (738) 
1905.5687140956393

>  <distance_score>  (738) 
8.642486095348717

>  <path>  (738) 
/opt/xchem-fragalysis-2/maxwin/BulkDock/SCRATCH/511021/C48919-P95/C48919-P95.minimised.mol

>  <scratch_subdir>  (738) 
/opt/xchem-fragalysis-2/maxwin/BulkDock/SCRATCH/511021/C48919-P95

>  <fragmenstein_runtime>  (738) 
16.938889026641846

>  <fragmenstein_outcome>  (738) 
too moved

>  <fragmenstein_mode>  (738) 
expansion

>  <fragmenstein_error>  (738) 


$$$$
C48919-P112
     RDKit          3D

 48 50  0  0  0  0  0  0  0  0999 V2000
  -10.6850   -7.1357    4.4244 C   0  0  0  0  0  0  0  0  0  0  0  0
  -10.3701   -8.3308    5.6542 C   0  0  0  0  0  0  0  0  0  0  0  0
   -9.7876   -6.5624    6.4466 C   0  0  0  0  0  0  0  0  0  0  0  0
   -9.0140   -5.1647    6.2116 N   0  0  0  0  0  0  0  0  0  0  0  0
   -7.8561   -4.7442    6.9717 C   0  0  0  0  0  0  0  0  0  0  0  0
   -7.7909   -3.2217    6.8884 C   0  0  0  0  0  0  0  0  0  0  0  0
   -8.6585   -2.8877    5.7065 C   0  0  0  0  0  0  0  0  0  0  0  0
   -9.7273   -3.9583    5.7888 C   0  0  0  0  0  0  0  0  0  0  0  0
  -10.3616  -10.2157    6.2859 N   0  0  0  0  0  0  0  0  0  0  0  0
  -11.3238  -11.8117    5.6830 C   0  0  0  0  0  0  0  0  0  0  0  0
  -12.0323  -11.8558    4.7003 O   0  0  0  0  0  0  0  0  0  0  0  0
  -11.1625  -13.3426    6.9703 N   0  0  0  0  0  0  0  0  0  0  0  0
  -11.9670  -15.2412    6.9126 C   0  0  0  0  0  0  0  0  0  0  0  0
  -12.2330  -16.4010    8.2950 C   0  0  0  0  0  0  0  0  0  0  0  0
  -12.1036  -17.9770    9.3138 C   0  0  0  0  0  0  0  0  0  0  0  0
  -11.2078  -19.0108    8.9367 C   0  0  0  0  0  0  0  0  0  0  0  0
  -11.0828  -20.5778    8.4187 C   0  0  0  0  0  0  0  0  0  0  0  0
  -12.0461  -21.9298    8.3854 C   0  0  0  0  0  0  0  0  0  0  0  0
  -12.2720  -22.3381    6.9289 C   0  0  0  0  0  0  0  0  0  0  0  0
  -11.9194  -21.1718    6.1973 O   0  0  0  0  0  0  0  0  0  0  0  0
  -10.7267  -20.7163    6.8720 C   0  0  0  0  0  0  0  0  0  0  0  0
  -10.9054  -18.1483    8.0322 N   0  0  0  0  0  0  0  0  0  0  0  0
  -11.4028  -16.4798    7.2160 N   0  0  0  0  0  0  0  0  0  0  0  0
  -11.7450   -6.8556    4.2710 H   0  0  0  0  0  0  0  0  0  0  0  0
  -10.1002   -7.4215    3.5503 H   0  0  0  0  0  0  0  0  0  0  0  0
  -10.3822   -6.1121    4.5384 H   0  0  0  0  0  0  0  0  0  0  0  0
   -9.8275   -8.8152    4.8896 H   0  0  0  0  0  0  0  0  0  0  0  0
   -9.5264   -6.6241    7.4735 H   0  0  0  0  0  0  0  0  0  0  0  0
  -10.6254   -5.9565    6.2629 H   0  0  0  0  0  0  0  0  0  0  0  0
   -7.8856   -5.0096    8.0215 H   0  0  0  0  0  0  0  0  0  0  0  0
   -6.9666   -5.1458    6.4884 H   0  0  0  0  0  0  0  0  0  0  0  0
   -8.2213   -2.7773    7.7942 H   0  0  0  0  0  0  0  0  0  0  0  0
   -6.7682   -2.8497    6.7759 H   0  0  0  0  0  0  0  0  0  0  0  0
   -9.0700   -1.8756    5.7573 H   0  0  0  0  0  0  0  0  0  0  0  0
   -8.0867   -2.9836    4.7753 H   0  0  0  0  0  0  0  0  0  0  0  0
  -10.1591   -4.0677    4.7986 H   0  0  0  0  0  0  0  0  0  0  0  0
  -10.4834   -3.6653    6.5231 H   0  0  0  0  0  0  0  0  0  0  0  0
   -9.7765  -10.4456    7.0729 H   0  0  0  0  0  0  0  0  0  0  0  0
  -10.4248  -13.1204    7.6982 H   0  0  0  0  0  0  0  0  0  0  0  0
  -12.8216  -16.1683    9.2102 H   0  0  0  0  0  0  0  0  0  0  0  0
  -12.9263  -18.0552   10.0078 H   0  0  0  0  0  0  0  0  0  0  0  0
  -10.2021  -20.8052    8.9929 H   0  0  0  0  0  0  0  0  0  0  0  0
  -11.6883  -22.7951    8.9239 H   0  0  0  0  0  0  0  0  0  0  0  0
  -13.0489  -21.8869    8.8237 H   0  0  0  0  0  0  0  0  0  0  0  0
  -13.3142  -22.5988    6.7218 H   0  0  0  0  0  0  0  0  0  0  0  0
  -11.6361  -23.1781    6.6278 H   0  0  0  0  0  0  0  0  0  0  0  0
  -10.0862  -21.5537    6.6415 H   0  0  0  0  0  0  0  0  0  0  0  0
  -10.2869  -19.8591    6.3645 H   0  0  0  0  0  0  0  0  0  0  0  0
  1  2  1  0
  2  3  1  0
  3  4  1  0
  4  5  1  0
  5  6  1  0
  6  7  1  0
  7  8  1  0
  2  9  1  0
  9 10  1  0
 10 11  2  0
 10 12  1  0
 12 13  1  0
 13 14  2  0
 14 15  1  0
 15 16  2  0
 16 17  1  0
 17 18  1  0
 18 19  1  0
 19 20  1  0
 20 21  1  0
 16 22  1  0
 22 23  2  0
  8  4  1  0
 23 13  1  0
 21 17  1  0
  1 24  1  0
  1 25  1  0
  1 26  1  0
  2 27  1  0
  3 28  1  0
  3 29  1  0
  5 30  1  0
  5 31  1  0
  6 32  1  0
  6 33  1  0
  7 34  1  0
  7 35  1  0
  8 36  1  0
  8 37  1  0
  9 38  1  0
 12 39  1  0
 14 40  1  0
 15 41  1  0
 17 42  1  0
 18 43  1  0
 18 44  1  0
 19 45  1  0
 19 46  1  0
 21 47  1  0
 21 48  1  0
M  END
>  <Energy>  (739) 
1110.70843698524

>  <compound_id>  (739) 
48919

>  <target_id>  (739) 
1

>  <reference_id>  (739) 
112

>  <inspiration_ids>  (739) 
[95, 112]

>  <energy_score>  (739) 
1087.4569865535602

>  <distance_score>  (739) 
7.298189463211722

>  <path>  (739) 
/opt/xchem-fragalysis-2/maxwin/BulkDock/SCRATCH/511021/C48919-P112/C48919-P112.minimised.mol

>  <scratch_subdir>  (739) 
/opt/xchem-fragalysis-2/maxwin/BulkDock/SCRATCH/511021/C48919-P112

>  <fragmenstein_runtime>  (739) 
12.738211631774902

>  <fragmenstein_outcome>  (739) 
too moved

>  <fragmenstein_mode>  (739) 
expansion

>  <fragmenstein_error>  (739) 


$$$$
C48921-P95
     RDKit          3D

 50 52  0  0  0  0  0  0  0  0999 V2000
  -10.2414   -8.1851    6.4075 C   0  0  0  0  0  0  0  0  0  0  0  0
   -9.6258   -8.8378    8.2006 C   0  0  0  0  0  0  0  0  0  0  0  0
   -9.3257   -6.7068    7.7556 C   0  0  0  0  0  0  0  0  0  0  0  0
   -8.2227   -5.2725    7.7889 N   0  0  0  0  0  0  0  0  0  0  0  0
   -8.9650   -4.0045    8.0465 C   0  0  0  0  0  0  0  0  0  0  0  0
   -8.1241   -2.8064    7.5948 C   0  0  0  0  0  0  0  0  0  0  0  0
   -7.0682   -3.4280    6.7196 C   0  0  0  0  0  0  0  0  0  0  0  0
   -7.6495   -4.8095    6.4875 C   0  0  0  0  0  0  0  0  0  0  0  0
  -10.2772   -9.7938    9.9613 N   0  0  0  0  0  0  0  0  0  0  0  0
  -10.4057  -11.6913   10.3749 C   0  0  0  0  0  0  0  0  0  0  0  0
  -10.2472  -12.5758    9.5925 O   0  0  0  0  0  0  0  0  0  0  0  0
  -10.6051  -11.9851   12.1612 N   0  0  0  0  0  0  0  0  0  0  0  0
  -10.6206  -13.5009   13.1101 C   0  0  0  0  0  0  0  0  0  0  0  0
  -10.3875  -14.6653   12.5274 C   0  0  0  0  0  0  0  0  0  0  0  0
  -10.2248  -16.1414   13.0123 C   0  0  0  0  0  0  0  0  0  0  0  0
  -10.7045  -16.8771   13.9936 C   0  0  0  0  0  0  0  0  0  0  0  0
  -10.5213  -18.5794   13.5698 C   0  0  0  0  0  0  0  0  0  0  0  0
   -9.4987  -19.3541   12.0888 C   0  0  0  0  0  0  0  0  0  0  0  0
   -9.5362  -21.0918   12.2786 C   0  0  0  0  0  0  0  0  0  0  0  0
  -10.3552  -21.3182   13.4722 O   0  0  0  0  0  0  0  0  0  0  0  0
  -11.2014  -20.1220   13.5606 C   0  0  0  0  0  0  0  0  0  0  0  0
  -11.1216  -15.7704   14.7926 C   0  0  0  0  0  0  0  0  0  0  0  0
  -11.0246  -14.0918   14.3783 C   0  0  0  0  0  0  0  0  0  0  0  0
  -10.1525   -7.2832    5.7902 H   0  0  0  0  0  0  0  0  0  0  0  0
  -10.0302   -8.8637    5.5493 H   0  0  0  0  0  0  0  0  0  0  0  0
  -11.2923   -8.2264    6.7625 H   0  0  0  0  0  0  0  0  0  0  0  0
  -10.6047   -9.2733    8.1309 H   0  0  0  0  0  0  0  0  0  0  0  0
  -10.1639   -6.3608    7.2019 H   0  0  0  0  0  0  0  0  0  0  0  0
   -9.2829   -6.2659    6.7088 H   0  0  0  0  0  0  0  0  0  0  0  0
   -9.1947   -3.9668    9.0879 H   0  0  0  0  0  0  0  0  0  0  0  0
   -9.8675   -3.9194    7.4323 H   0  0  0  0  0  0  0  0  0  0  0  0
   -8.7440   -2.1111    7.0153 H   0  0  0  0  0  0  0  0  0  0  0  0
   -7.6936   -2.2268    8.4108 H   0  0  0  0  0  0  0  0  0  0  0  0
   -6.9357   -2.8757    5.7836 H   0  0  0  0  0  0  0  0  0  0  0  0
   -6.0967   -3.4730    7.2144 H   0  0  0  0  0  0  0  0  0  0  0  0
   -6.8983   -5.4659    6.0730 H   0  0  0  0  0  0  0  0  0  0  0  0
   -8.4626   -4.6145    5.7827 H   0  0  0  0  0  0  0  0  0  0  0  0
  -10.3680   -9.2605   10.7930 H   0  0  0  0  0  0  0  0  0  0  0  0
  -10.6394  -11.0954   12.6418 H   0  0  0  0  0  0  0  0  0  0  0  0
  -10.3087  -14.4562   11.5087 H   0  0  0  0  0  0  0  0  0  0  0  0
   -9.4025  -16.7525   12.6493 H   0  0  0  0  0  0  0  0  0  0  0  0
  -10.1833  -18.6995   14.6127 H   0  0  0  0  0  0  0  0  0  0  0  0
   -8.4208  -19.2285   12.0673 H   0  0  0  0  0  0  0  0  0  0  0  0
   -9.6885  -18.9956   11.1045 H   0  0  0  0  0  0  0  0  0  0  0  0
   -8.5266  -21.4709   12.4792 H   0  0  0  0  0  0  0  0  0  0  0  0
   -9.9247  -21.6909   11.4572 H   0  0  0  0  0  0  0  0  0  0  0  0
  -12.2655  -20.0357   13.7224 H   0  0  0  0  0  0  0  0  0  0  0  0
  -11.6607  -20.5918   12.7581 H   0  0  0  0  0  0  0  0  0  0  0  0
  -11.5791  -15.9436   15.7688 H   0  0  0  0  0  0  0  0  0  0  0  0
  -11.4236  -13.4385   15.1576 H   0  0  0  0  0  0  0  0  0  0  0  0
  1  2  1  0
  2  3  1  0
  3  4  1  0
  4  5  1  0
  5  6  1  0
  6  7  1  0
  7  8  1  0
  2  9  1  0
  9 10  1  0
 10 11  2  0
 10 12  1  0
 12 13  1  0
 13 14  2  0
 14 15  1  0
 15 16  2  0
 16 17  1  0
 17 18  1  0
 18 19  1  0
 19 20  1  0
 20 21  1  0
 16 22  1  0
 22 23  2  0
  8  4  1  0
 23 13  1  0
 21 17  1  0
  1 24  1  0
  1 25  1  0
  1 26  1  0
  2 27  1  0
  3 28  1  0
  3 29  1  0
  5 30  1  0
  5 31  1  0
  6 32  1  0
  6 33  1  0
  7 34  1  0
  7 35  1  0
  8 36  1  0
  8 37  1  0
  9 38  1  0
 12 39  1  0
 14 40  1  0
 15 41  1  0
 17 42  1  0
 18 43  1  0
 18 44  1  0
 19 45  1  0
 19 46  1  0
 21 47  1  0
 21 48  1  0
 22 49  1  0
 23 50  1  0
M  END
>  <Energy>  (740) 
1096.4686442482082

>  <compound_id>  (740) 
48921

>  <target_id>  (740) 
1

>  <reference_id>  (740) 
95

>  <inspiration_ids>  (740) 
[95, 112]

>  <energy_score>  (740) 
1048.9521398933334

>  <distance_score>  (740) 
7.786171090916954

>  <path>  (740) 
/opt/xchem-fragalysis-2/maxwin/BulkDock/SCRATCH/511021/C48921-P95/C48921-P95.minimised.mol

>  <scratch_subdir>  (740) 
/opt/xchem-fragalysis-2/maxwin/BulkDock/SCRATCH/511021/C48921-P95

>  <fragmenstein_runtime>  (740) 
12.914401292800903

>  <fragmenstein_outcome>  (740) 
too moved

>  <fragmenstein_mode>  (740) 
expansion

>  <fragmenstein_error>  (740) 


$$$$
C48921-P112
     RDKit          3D

 50 52  0  0  0  0  0  0  0  0999 V2000
  -10.3573   -3.5846    7.7613 C   0  0  0  0  0  0  0  0  0  0  0  0
   -9.9066   -4.7575    9.2718 C   0  0  0  0  0  0  0  0  0  0  0  0
   -8.2198   -4.5963    8.5218 C   0  0  0  0  0  0  0  0  0  0  0  0
   -7.4532   -3.8081    7.3656 N   0  0  0  0  0  0  0  0  0  0  0  0
   -7.4414   -4.3040    6.0068 C   0  0  0  0  0  0  0  0  0  0  0  0
   -6.7273   -3.2252    5.2168 C   0  0  0  0  0  0  0  0  0  0  0  0
   -7.2383   -1.9606    5.8695 C   0  0  0  0  0  0  0  0  0  0  0  0
   -7.3155   -2.3375    7.3420 C   0  0  0  0  0  0  0  0  0  0  0  0
  -10.8537   -5.3688   10.9313 N   0  0  0  0  0  0  0  0  0  0  0  0
  -12.5677   -6.2863   11.1824 C   0  0  0  0  0  0  0  0  0  0  0  0
  -13.4057   -6.5768   10.3873 O   0  0  0  0  0  0  0  0  0  0  0  0
  -12.6760   -6.8034   12.8763 N   0  0  0  0  0  0  0  0  0  0  0  0
  -13.6227   -7.6771   13.5548 C   0  0  0  0  0  0  0  0  0  0  0  0
  -13.2721   -8.2401   14.7973 C   0  0  0  0  0  0  0  0  0  0  0  0
  -13.8469   -9.4619   15.2933 C   0  0  0  0  0  0  0  0  0  0  0  0
  -14.8084  -10.2024   14.5787 C   0  0  0  0  0  0  0  0  0  0  0  0
  -15.3884  -11.5205   15.1264 C   0  0  0  0  0  0  0  0  0  0  0  0
  -14.4166  -12.4727   15.8483 C   0  0  0  0  0  0  0  0  0  0  0  0
  -14.6488  -13.8374   15.2351 C   0  0  0  0  0  0  0  0  0  0  0  0
  -15.9782  -13.8054   14.7219 O   0  0  0  0  0  0  0  0  0  0  0  0
  -16.1520  -12.4793   14.1905 C   0  0  0  0  0  0  0  0  0  0  0  0
  -15.2092   -9.6127   13.3698 C   0  0  0  0  0  0  0  0  0  0  0  0
  -14.6168   -8.3956   12.8654 C   0  0  0  0  0  0  0  0  0  0  0  0
  -11.4328   -3.5012    7.5209 H   0  0  0  0  0  0  0  0  0  0  0  0
   -9.9308   -3.9809    6.8421 H   0  0  0  0  0  0  0  0  0  0  0  0
   -9.9807   -2.5747    7.9596 H   0  0  0  0  0  0  0  0  0  0  0  0
   -9.6383   -4.0492   10.0045 H   0  0  0  0  0  0  0  0  0  0  0  0
   -8.5641   -5.2684    7.7380 H   0  0  0  0  0  0  0  0  0  0  0  0
   -8.3650   -3.5758    8.8037 H   0  0  0  0  0  0  0  0  0  0  0  0
   -8.4521   -4.3967    5.6099 H   0  0  0  0  0  0  0  0  0  0  0  0
   -6.9147   -5.2502    5.9406 H   0  0  0  0  0  0  0  0  0  0  0  0
   -6.9559   -3.2661    4.1480 H   0  0  0  0  0  0  0  0  0  0  0  0
   -5.6408   -3.3050    5.3427 H   0  0  0  0  0  0  0  0  0  0  0  0
   -8.2382   -1.7202    5.4881 H   0  0  0  0  0  0  0  0  0  0  0  0
   -6.5826   -1.1041    5.6880 H   0  0  0  0  0  0  0  0  0  0  0  0
   -8.1130   -1.7730    7.8294 H   0  0  0  0  0  0  0  0  0  0  0  0
   -6.3741   -2.0488    7.8213 H   0  0  0  0  0  0  0  0  0  0  0  0
  -10.3161   -5.3350   11.7855 H   0  0  0  0  0  0  0  0  0  0  0  0
  -11.9168   -6.3849   13.3928 H   0  0  0  0  0  0  0  0  0  0  0  0
  -12.4733   -7.7900   15.3837 H   0  0  0  0  0  0  0  0  0  0  0  0
  -13.4931   -9.8263   16.2569 H   0  0  0  0  0  0  0  0  0  0  0  0
  -16.1163  -11.1911   15.8836 H   0  0  0  0  0  0  0  0  0  0  0  0
  -14.6800  -12.5040   16.9132 H   0  0  0  0  0  0  0  0  0  0  0  0
  -13.3614  -12.1925   15.7966 H   0  0  0  0  0  0  0  0  0  0  0  0
  -13.9437  -13.9968   14.4143 H   0  0  0  0  0  0  0  0  0  0  0  0
  -14.5432  -14.6517   15.9569 H   0  0  0  0  0  0  0  0  0  0  0  0
  -15.7836  -12.4767   13.1628 H   0  0  0  0  0  0  0  0  0  0  0  0
  -17.2213  -12.2467   14.1598 H   0  0  0  0  0  0  0  0  0  0  0  0
  -15.9522  -10.1005   12.7396 H   0  0  0  0  0  0  0  0  0  0  0  0
  -14.9061   -8.0785   11.8642 H   0  0  0  0  0  0  0  0  0  0  0  0
  1  2  1  0
  2  3  1  0
  3  4  1  0
  4  5  1  0
  5  6  1  0
  6  7  1  0
  7  8  1  0
  2  9  1  0
  9 10  1  0
 10 11  2  0
 10 12  1  0
 12 13  1  0
 13 14  2  0
 14 15  1  0
 15 16  2  0
 16 17  1  0
 17 18  1  0
 18 19  1  0
 19 20  1  0
 20 21  1  0
 16 22  1  0
 22 23  2  0
  8  4  1  0
 23 13  1  0
 21 17  1  0
  1 24  1  0
  1 25  1  0
  1 26  1  0
  2 27  1  0
  3 28  1  0
  3 29  1  0
  5 30  1  0
  5 31  1  0
  6 32  1  0
  6 33  1  0
  7 34  1  0
  7 35  1  0
  8 36  1  0
  8 37  1  0
  9 38  1  0
 12 39  1  0
 14 40  1  0
 15 41  1  0
 17 42  1  0
 18 43  1  0
 18 44  1  0
 19 45  1  0
 19 46  1  0
 21 47  1  0
 21 48  1  0
 22 49  1  0
 23 50  1  0
M  END
>  <Energy>  (741) 
448.16579722446352

>  <compound_id>  (741) 
48921

>  <target_id>  (741) 
1

>  <reference_id>  (741) 
112

>  <inspiration_ids>  (741) 
[95, 112]

>  <energy_score>  (741) 
400.6492928695834

>  <distance_score>  (741) 
10.965204300840885

>  <path>  (741) 
/opt/xchem-fragalysis-2/maxwin/BulkDock/SCRATCH/511021/C48921-P112/C48921-P112.minimised.mol

>  <scratch_subdir>  (741) 
/opt/xchem-fragalysis-2/maxwin/BulkDock/SCRATCH/511021/C48921-P112

>  <fragmenstein_runtime>  (741) 
13.267988443374634

>  <fragmenstein_outcome>  (741) 
too moved

>  <fragmenstein_mode>  (741) 
expansion

>  <fragmenstein_error>  (741) 


$$$$
C22137-P95
     RDKit          3D

 49 50  0  0  0  0  0  0  0  0999 V2000
  -10.6604  -13.7024   11.8842 C   0  0  0  0  0  0  0  0  0  0  0  0
   -9.7367  -12.5984   11.5631 C   0  0  0  0  0  0  0  0  0  0  0  0
  -10.4655  -11.5589   10.0768 C   0  0  0  0  0  0  0  0  0  0  0  0
  -10.6811   -9.6372    9.3844 C   0  0  0  0  0  0  0  0  0  0  0  0
  -11.4933   -9.0787   10.0454 O   0  0  0  0  0  0  0  0  0  0  0  0
   -9.7985   -8.9655    7.8235 N   0  0  0  0  0  0  0  0  0  0  0  0
   -9.8492   -7.0239    6.8588 C   0  0  0  0  0  0  0  0  0  0  0  0
  -10.3056   -7.4795    5.1649 C   0  0  0  0  0  0  0  0  0  0  0  0
  -10.5144   -5.4587    5.8961 C   0  0  0  0  0  0  0  0  0  0  0  0
   -8.9421   -5.2420    7.2576 C   0  0  0  0  0  0  0  0  0  0  0  0
   -8.8788   -4.9570    8.4148 O   0  0  0  0  0  0  0  0  0  0  0  0
   -8.5092   -4.2924    6.1009 N   0  0  0  0  0  0  0  0  0  0  0  0
   -7.0418   -4.5028    5.7484 C   0  0  0  0  0  0  0  0  0  0  0  0
   -6.0073   -3.4673    6.2439 C   0  0  0  0  0  0  0  0  0  0  0  0
   -6.8652   -2.4434    6.8356 C   0  0  0  0  0  0  0  0  0  0  0  0
   -8.0635   -2.8780    6.1025 C   0  0  0  0  0  0  0  0  0  0  0  0
   -9.0403  -12.3258   13.0377 C   0  0  0  0  0  0  0  0  0  0  0  0
   -9.3407  -13.1558   14.3562 C   0  0  0  0  0  0  0  0  0  0  0  0
   -8.0387  -13.5753   14.9995 C   0  0  0  0  0  0  0  0  0  0  0  0
   -7.0427  -12.8179   14.1916 C   0  0  0  0  0  0  0  0  0  0  0  0
   -7.6403  -12.7089   12.9037 O   0  0  0  0  0  0  0  0  0  0  0  0
  -11.2422  -13.8780   12.7634 H   0  0  0  0  0  0  0  0  0  0  0  0
  -11.4142  -13.4670   11.1834 H   0  0  0  0  0  0  0  0  0  0  0  0
  -10.2358  -14.6897   11.9059 H   0  0  0  0  0  0  0  0  0  0  0  0
   -8.8115  -12.7907   11.0363 H   0  0  0  0  0  0  0  0  0  0  0  0
  -10.4260  -12.3861    9.3908 H   0  0  0  0  0  0  0  0  0  0  0  0
  -10.3803  -11.2747   11.1381 H   0  0  0  0  0  0  0  0  0  0  0  0
   -9.2773   -9.6314    7.4541 H   0  0  0  0  0  0  0  0  0  0  0  0
  -10.0291   -6.9311    4.2606 H   0  0  0  0  0  0  0  0  0  0  0  0
  -11.2091   -7.1665    4.5811 H   0  0  0  0  0  0  0  0  0  0  0  0
  -10.0967   -8.5368    5.1468 H   0  0  0  0  0  0  0  0  0  0  0  0
   -9.8986   -5.1004    5.0852 H   0  0  0  0  0  0  0  0  0  0  0  0
  -10.7901   -4.5519    6.4712 H   0  0  0  0  0  0  0  0  0  0  0  0
  -11.3042   -5.5025    5.1504 H   0  0  0  0  0  0  0  0  0  0  0  0
   -6.7794   -5.4857    6.1062 H   0  0  0  0  0  0  0  0  0  0  0  0
   -6.9495   -4.5022    4.6516 H   0  0  0  0  0  0  0  0  0  0  0  0
   -5.4451   -3.0768    5.3852 H   0  0  0  0  0  0  0  0  0  0  0  0
   -5.2651   -3.7921    6.9587 H   0  0  0  0  0  0  0  0  0  0  0  0
   -6.5550   -1.4215    6.6020 H   0  0  0  0  0  0  0  0  0  0  0  0
   -7.0301   -2.5184    7.9023 H   0  0  0  0  0  0  0  0  0  0  0  0
   -8.0668   -2.5183    5.0570 H   0  0  0  0  0  0  0  0  0  0  0  0
   -8.9157   -2.3471    6.5518 H   0  0  0  0  0  0  0  0  0  0  0  0
   -9.1012  -11.2566   13.2703 H   0  0  0  0  0  0  0  0  0  0  0  0
   -9.9242  -14.0683   14.2275 H   0  0  0  0  0  0  0  0  0  0  0  0
   -9.8524  -12.5180   15.0854 H   0  0  0  0  0  0  0  0  0  0  0  0
   -7.8853  -14.6549   14.9066 H   0  0  0  0  0  0  0  0  0  0  0  0
   -7.9839  -13.3334   16.0652 H   0  0  0  0  0  0  0  0  0  0  0  0
   -6.8750  -11.8107   14.5895 H   0  0  0  0  0  0  0  0  0  0  0  0
   -6.0776  -13.3263   14.1179 H   0  0  0  0  0  0  0  0  0  0  0  0
  1  2  1  0
  2  3  1  0
  3  4  1  0
  4  5  2  0
  4  6  1  0
  6  7  1  0
  7  8  1  0
  7  9  1  0
  7 10  1  0
 10 11  2  0
 10 12  1  0
 12 13  1  0
 13 14  1  0
 14 15  1  0
 15 16  1  0
  2 17  1  0
 17 18  1  0
 18 19  1  0
 19 20  1  0
 20 21  1  0
 16 12  1  0
 21 17  1  0
  1 22  1  0
  1 23  1  0
  1 24  1  0
  2 25  1  0
  3 26  1  0
  3 27  1  0
  6 28  1  0
  8 29  1  0
  8 30  1  0
  8 31  1  0
  9 32  1  0
  9 33  1  0
  9 34  1  0
 13 35  1  0
 13 36  1  0
 14 37  1  0
 14 38  1  0
 15 39  1  0
 15 40  1  0
 16 41  1  0
 16 42  1  0
 17 43  1  0
 18 44  1  0
 18 45  1  0
 19 46  1  0
 19 47  1  0
 20 48  1  0
 20 49  1  0
M  END
>  <Energy>  (742) 
966.23996586784438

>  <compound_id>  (742) 
22137

>  <target_id>  (742) 
1

>  <reference_id>  (742) 
95

>  <inspiration_ids>  (742) 
[95, 112]

>  <energy_score>  (742) 
886.4782616198086

>  <distance_score>  (742) 
8.95591150204516

>  <path>  (742) 
/opt/xchem-fragalysis-2/maxwin/BulkDock/SCRATCH/511021/C22137-P95/C22137-P95.minimised.mol

>  <scratch_subdir>  (742) 
/opt/xchem-fragalysis-2/maxwin/BulkDock/SCRATCH/511021/C22137-P95

>  <fragmenstein_runtime>  (742) 
13.225510597229004

>  <fragmenstein_outcome>  (742) 
too moved

>  <fragmenstein_mode>  (742) 
expansion

>  <fragmenstein_error>  (742) 


$$$$
C22137-P112
     RDKit          3D

 49 50  0  0  0  0  0  0  0  0999 V2000
  -17.6940  -21.1504    4.7090 C   0  0  0  0  0  0  0  0  0  0  0  0
  -16.2123  -21.2203    5.1034 C   0  0  0  0  0  0  0  0  0  0  0  0
  -15.6077  -19.8100    5.3015 C   0  0  0  0  0  0  0  0  0  0  0  0
  -15.5864  -18.7984    4.1174 C   0  0  0  0  0  0  0  0  0  0  0  0
  -16.0974  -19.0843    3.0718 O   0  0  0  0  0  0  0  0  0  0  0  0
  -14.9448  -17.5656    4.5556 N   0  0  0  0  0  0  0  0  0  0  0  0
  -14.8081  -16.2418    3.8834 C   0  0  0  0  0  0  0  0  0  0  0  0
  -13.3659  -15.7218    4.0711 C   0  0  0  0  0  0  0  0  0  0  0  0
  -15.0900  -16.3489    2.3764 C   0  0  0  0  0  0  0  0  0  0  0  0
  -15.9092  -15.2631    4.5225 C   0  0  0  0  0  0  0  0  0  0  0  0
  -16.7493  -15.7454    5.2451 O   0  0  0  0  0  0  0  0  0  0  0  0
  -15.7615  -13.9148    4.0305 N   0  0  0  0  0  0  0  0  0  0  0  0
  -14.9037  -13.0976    4.9780 C   0  0  0  0  0  0  0  0  0  0  0  0
  -14.6458  -11.6950    4.4614 C   0  0  0  0  0  0  0  0  0  0  0  0
  -15.9643  -11.4131    3.8451 C   0  0  0  0  0  0  0  0  0  0  0  0
  -16.6542  -12.7220    4.1669 C   0  0  0  0  0  0  0  0  0  0  0  0
  -16.0339  -22.2199    6.2884 C   0  0  0  0  0  0  0  0  0  0  0  0
  -16.9642  -22.0854    7.4835 C   0  0  0  0  0  0  0  0  0  0  0  0
  -16.2901  -22.9609    8.5186 C   0  0  0  0  0  0  0  0  0  0  0  0
  -14.8263  -22.9367    8.1230 C   0  0  0  0  0  0  0  0  0  0  0  0
  -14.7232  -22.2176    6.8787 O   0  0  0  0  0  0  0  0  0  0  0  0
  -18.1193  -22.1557    4.6163 H   0  0  0  0  0  0  0  0  0  0  0  0
  -18.2788  -20.5992    5.4529 H   0  0  0  0  0  0  0  0  0  0  0  0
  -17.8356  -20.6579    3.7436 H   0  0  0  0  0  0  0  0  0  0  0  0
  -15.6696  -21.6565    4.2528 H   0  0  0  0  0  0  0  0  0  0  0  0
  -14.5597  -19.9498    5.5700 H   0  0  0  0  0  0  0  0  0  0  0  0
  -16.1668  -19.3217    6.1027 H   0  0  0  0  0  0  0  0  0  0  0  0
  -14.5479  -17.7077    5.4826 H   0  0  0  0  0  0  0  0  0  0  0  0
  -13.1876  -14.8018    3.5079 H   0  0  0  0  0  0  0  0  0  0  0  0
  -12.6463  -16.4661    3.7090 H   0  0  0  0  0  0  0  0  0  0  0  0
  -13.1419  -15.5582    5.1303 H   0  0  0  0  0  0  0  0  0  0  0  0
  -14.4529  -17.1055    1.9049 H   0  0  0  0  0  0  0  0  0  0  0  0
  -14.9095  -15.3966    1.8649 H   0  0  0  0  0  0  0  0  0  0  0  0
  -16.1351  -16.6172    2.1849 H   0  0  0  0  0  0  0  0  0  0  0  0
  -15.3117  -13.1312    6.0008 H   0  0  0  0  0  0  0  0  0  0  0  0
  -13.9357  -13.5825    5.0910 H   0  0  0  0  0  0  0  0  0  0  0  0
  -14.3810  -10.9982    5.2587 H   0  0  0  0  0  0  0  0  0  0  0  0
  -13.8655  -11.6959    3.6969 H   0  0  0  0  0  0  0  0  0  0  0  0
  -15.8731  -11.2598    2.7646 H   0  0  0  0  0  0  0  0  0  0  0  0
  -16.4821  -10.5541    4.2803 H   0  0  0  0  0  0  0  0  0  0  0  0
  -17.4595  -12.8847    3.4380 H   0  0  0  0  0  0  0  0  0  0  0  0
  -17.1818  -12.7267    5.1353 H   0  0  0  0  0  0  0  0  0  0  0  0
  -16.1766  -23.2260    5.8656 H   0  0  0  0  0  0  0  0  0  0  0  0
  -17.9862  -22.4123    7.2704 H   0  0  0  0  0  0  0  0  0  0  0  0
  -17.0089  -21.0515    7.8339 H   0  0  0  0  0  0  0  0  0  0  0  0
  -16.4538  -22.6068    9.5408 H   0  0  0  0  0  0  0  0  0  0  0  0
  -16.6727  -23.9867    8.4649 H   0  0  0  0  0  0  0  0  0  0  0  0
  -14.2095  -22.4343    8.8693 H   0  0  0  0  0  0  0  0  0  0  0  0
  -14.4324  -23.9479    7.9779 H   0  0  0  0  0  0  0  0  0  0  0  0
  1  2  1  0
  2  3  1  0
  3  4  1  0
  4  5  2  0
  4  6  1  0
  6  7  1  0
  7  8  1  0
  7  9  1  0
  7 10  1  0
 10 11  2  0
 10 12  1  0
 12 13  1  0
 13 14  1  0
 14 15  1  0
 15 16  1  0
  2 17  1  0
 17 18  1  0
 18 19  1  0
 19 20  1  0
 20 21  1  0
 16 12  1  0
 21 17  1  0
  1 22  1  0
  1 23  1  0
  1 24  1  0
  2 25  1  0
  3 26  1  0
  3 27  1  0
  6 28  1  0
  8 29  1  0
  8 30  1  0
  8 31  1  0
  9 32  1  0
  9 33  1  0
  9 34  1  0
 13 35  1  0
 13 36  1  0
 14 37  1  0
 14 38  1  0
 15 39  1  0
 15 40  1  0
 16 41  1  0
 16 42  1  0
 17 43  1  0
 18 44  1  0
 18 45  1  0
 19 46  1  0
 19 47  1  0
 20 48  1  0
 20 49  1  0
M  END
>  <Energy>  (743) 
102.21036571773001

>  <compound_id>  (743) 
22137

>  <target_id>  (743) 
1

>  <reference_id>  (743) 
112

>  <inspiration_ids>  (743) 
[95, 112]

>  <energy_score>  (743) 
22.448661469700397

>  <distance_score>  (743) 
13.335617578863841

>  <path>  (743) 
/opt/xchem-fragalysis-2/maxwin/BulkDock/SCRATCH/511021/C22137-P112/C22137-P112.minimised.mol

>  <scratch_subdir>  (743) 
/opt/xchem-fragalysis-2/maxwin/BulkDock/SCRATCH/511021/C22137-P112

>  <fragmenstein_runtime>  (743) 
20.309527158737183

>  <fragmenstein_outcome>  (743) 
too moved

>  <fragmenstein_mode>  (743) 
expansion

>  <fragmenstein_error>  (743) 


$$$$
C48924-P95
     RDKit          3D

 48 49  0  0  0  0  0  0  0  0999 V2000
  -14.5988   -8.1845    6.3809 C   0  0  0  0  0  0  0  0  0  0  0  0
  -14.1925   -8.5166    4.9343 C   0  0  0  0  0  0  0  0  0  0  0  0
  -13.0464   -7.3894    4.0078 C   0  0  0  0  0  0  0  0  0  0  0  0
  -11.2704   -6.4643    4.2612 C   0  0  0  0  0  0  0  0  0  0  0  0
  -10.5276   -4.9753    5.0001 N   0  0  0  0  0  0  0  0  0  0  0  0
   -9.6834   -5.0133    6.2161 C   0  0  0  0  0  0  0  0  0  0  0  0
   -9.8259   -3.6757    7.0227 C   0  0  0  0  0  0  0  0  0  0  0  0
   -9.2442   -2.5248    6.4118 O   0  0  0  0  0  0  0  0  0  0  0  0
   -8.8527   -2.8139    5.0943 C   0  0  0  0  0  0  0  0  0  0  0  0
   -9.8750   -3.7102    4.3221 C   0  0  0  0  0  0  0  0  0  0  0  0
  -14.1843  -10.0437    4.8418 N   0  0  0  0  0  0  0  0  0  0  0  0
  -15.2403  -11.0186    5.0703 C   0  0  0  0  0  0  0  0  0  0  0  0
  -16.4029  -10.8662    5.3093 O   0  0  0  0  0  0  0  0  0  0  0  0
  -14.8222  -12.4837    5.1263 C   0  0  0  0  0  0  0  0  0  0  0  0
  -14.6760  -13.6829    5.3232 C   0  0  0  0  0  0  0  0  0  0  0  0
  -14.6819  -15.1888    5.5283 C   0  0  0  0  0  0  0  0  0  0  0  0
  -15.2867  -15.8329    4.2660 C   0  0  0  0  0  0  0  0  0  0  0  0
  -13.3184  -15.8060    5.8572 C   0  0  0  0  0  0  0  0  0  0  0  0
  -13.5956  -17.0439    6.7165 C   0  0  0  0  0  0  0  0  0  0  0  0
  -15.0541  -16.9251    7.1200 C   0  0  0  0  0  0  0  0  0  0  0  0
  -15.4534  -15.5691    6.7265 N   0  0  0  0  0  0  0  0  0  0  0  0
  -13.7662   -8.2028    7.0797 H   0  0  0  0  0  0  0  0  0  0  0  0
  -15.1710   -7.2622    6.4776 H   0  0  0  0  0  0  0  0  0  0  0  0
  -15.2912   -8.9423    6.7691 H   0  0  0  0  0  0  0  0  0  0  0  0
  -15.1185   -8.3162    4.3695 H   0  0  0  0  0  0  0  0  0  0  0  0
  -13.8290   -6.8865    3.4685 H   0  0  0  0  0  0  0  0  0  0  0  0
  -13.0945   -8.0062    3.0969 H   0  0  0  0  0  0  0  0  0  0  0  0
  -10.6317   -7.1687    4.8130 H   0  0  0  0  0  0  0  0  0  0  0  0
  -10.6478   -6.7485    3.4300 H   0  0  0  0  0  0  0  0  0  0  0  0
   -8.6013   -5.0312    6.0689 H   0  0  0  0  0  0  0  0  0  0  0  0
   -9.8316   -5.9417    6.7366 H   0  0  0  0  0  0  0  0  0  0  0  0
   -9.3139   -3.7856    7.9835 H   0  0  0  0  0  0  0  0  0  0  0  0
  -10.8787   -3.4289    7.1806 H   0  0  0  0  0  0  0  0  0  0  0  0
   -7.8588   -3.2790    5.1118 H   0  0  0  0  0  0  0  0  0  0  0  0
   -8.7310   -1.8634    4.5620 H   0  0  0  0  0  0  0  0  0  0  0  0
   -9.2400   -3.9298    3.4589 H   0  0  0  0  0  0  0  0  0  0  0  0
  -10.6473   -3.0075    4.0334 H   0  0  0  0  0  0  0  0  0  0  0  0
  -13.3069  -10.5264    4.7505 H   0  0  0  0  0  0  0  0  0  0  0  0
  -16.3138  -15.4874    4.0961 H   0  0  0  0  0  0  0  0  0  0  0  0
  -15.3095  -16.9267    4.3224 H   0  0  0  0  0  0  0  0  0  0  0  0
  -14.7025  -15.5667    3.3766 H   0  0  0  0  0  0  0  0  0  0  0  0
  -12.7135  -15.1054    6.4312 H   0  0  0  0  0  0  0  0  0  0  0  0
  -12.7456  -16.0677    4.9609 H   0  0  0  0  0  0  0  0  0  0  0  0
  -12.9330  -17.0632    7.5873 H   0  0  0  0  0  0  0  0  0  0  0  0
  -13.4257  -17.9610    6.1423 H   0  0  0  0  0  0  0  0  0  0  0  0
  -15.6602  -17.6700    6.5924 H   0  0  0  0  0  0  0  0  0  0  0  0
  -15.1942  -17.0786    8.1941 H   0  0  0  0  0  0  0  0  0  0  0  0
  -16.4539  -15.5111    6.5488 H   0  0  0  0  0  0  0  0  0  0  0  0
  1  2  1  0
  2  3  1  0
  3  4  1  0
  4  5  1  0
  5  6  1  0
  6  7  1  0
  7  8  1  0
  8  9  1  0
  9 10  1  0
  2 11  1  0
 11 12  1  0
 12 13  2  0
 12 14  1  0
 14 15  3  0
 15 16  1  0
 16 17  1  0
 16 18  1  0
 18 19  1  0
 19 20  1  0
 20 21  1  0
 10  5  1  0
 21 16  1  0
  1 22  1  0
  1 23  1  0
  1 24  1  0
  2 25  1  0
  3 26  1  0
  3 27  1  0
  4 28  1  0
  4 29  1  0
  6 30  1  0
  6 31  1  0
  7 32  1  0
  7 33  1  0
  9 34  1  0
  9 35  1  0
 10 36  1  0
 10 37  1  0
 11 38  1  0
 17 39  1  0
 17 40  1  0
 17 41  1  0
 18 42  1  0
 18 43  1  0
 19 44  1  0
 19 45  1  0
 20 46  1  0
 20 47  1  0
 21 48  1  0
M  END
>  <Energy>  (744) 
291.90165592433385

>  <compound_id>  (744) 
48924

>  <target_id>  (744) 
1

>  <reference_id>  (744) 
95

>  <inspiration_ids>  (744) 
[95, 112]

>  <energy_score>  (744) 
221.65118499313496

>  <distance_score>  (744) 
9.163690846901359

>  <path>  (744) 
/opt/xchem-fragalysis-2/maxwin/BulkDock/SCRATCH/511021/C48924-P95/C48924-P95.minimised.mol

>  <scratch_subdir>  (744) 
/opt/xchem-fragalysis-2/maxwin/BulkDock/SCRATCH/511021/C48924-P95

>  <fragmenstein_runtime>  (744) 
13.578055143356323

>  <fragmenstein_outcome>  (744) 
too moved

>  <fragmenstein_mode>  (744) 
expansion

>  <fragmenstein_error>  (744) 


$$$$
C48924-P112
     RDKit          3D

 48 49  0  0  0  0  0  0  0  0999 V2000
  -10.5482   -7.1808    4.6418 C   0  0  0  0  0  0  0  0  0  0  0  0
  -10.0462   -7.6911    6.3393 C   0  0  0  0  0  0  0  0  0  0  0  0
   -9.4527   -5.9619    6.7015 C   0  0  0  0  0  0  0  0  0  0  0  0
   -8.1012   -5.1091    6.6208 C   0  0  0  0  0  0  0  0  0  0  0  0
   -8.1637   -3.6600    6.3569 N   0  0  0  0  0  0  0  0  0  0  0  0
   -8.5030   -3.3090    4.9772 C   0  0  0  0  0  0  0  0  0  0  0  0
   -8.3992   -1.7875    4.7738 C   0  0  0  0  0  0  0  0  0  0  0  0
   -9.2262   -1.0580    5.6893 O   0  0  0  0  0  0  0  0  0  0  0  0
   -8.8921   -1.4045    7.0428 C   0  0  0  0  0  0  0  0  0  0  0  0
   -9.0357   -2.9143    7.2768 C   0  0  0  0  0  0  0  0  0  0  0  0
   -9.6546   -9.3927    7.2687 N   0  0  0  0  0  0  0  0  0  0  0  0
   -9.5388  -11.1814    6.6087 C   0  0  0  0  0  0  0  0  0  0  0  0
   -9.6331  -11.2900    5.4485 O   0  0  0  0  0  0  0  0  0  0  0  0
   -9.4606  -12.9622    7.3720 C   0  0  0  0  0  0  0  0  0  0  0  0
   -9.9821  -14.1578    7.2424 C   0  0  0  0  0  0  0  0  0  0  0  0
  -11.6464  -15.3242    6.7601 C   0  0  0  0  0  0  0  0  0  0  0  0
  -13.0597  -14.6551    6.2585 C   0  0  0  0  0  0  0  0  0  0  0  0
  -11.8739  -16.4862    5.3815 C   0  0  0  0  0  0  0  0  0  0  0  0
  -11.7934  -17.9417    5.8399 C   0  0  0  0  0  0  0  0  0  0  0  0
  -12.5280  -17.8360    7.1361 C   0  0  0  0  0  0  0  0  0  0  0  0
  -12.2028  -16.5357    7.7002 N   0  0  0  0  0  0  0  0  0  0  0  0
  -11.5965   -7.0592    4.3396 H   0  0  0  0  0  0  0  0  0  0  0  0
  -10.3701   -6.1095    4.5858 H   0  0  0  0  0  0  0  0  0  0  0  0
  -10.1389   -7.7061    3.7945 H   0  0  0  0  0  0  0  0  0  0  0  0
  -10.9563   -8.1161    6.5456 H   0  0  0  0  0  0  0  0  0  0  0  0
   -9.4358   -6.0038    7.7439 H   0  0  0  0  0  0  0  0  0  0  0  0
  -10.2008   -5.2972    6.2643 H   0  0  0  0  0  0  0  0  0  0  0  0
   -7.6851   -5.1204    7.6332 H   0  0  0  0  0  0  0  0  0  0  0  0
   -7.2887   -5.5325    6.0342 H   0  0  0  0  0  0  0  0  0  0  0  0
   -9.5202   -3.6362    4.7347 H   0  0  0  0  0  0  0  0  0  0  0  0
   -7.8111   -3.7914    4.2787 H   0  0  0  0  0  0  0  0  0  0  0  0
   -7.3622   -1.4468    4.8836 H   0  0  0  0  0  0  0  0  0  0  0  0
   -8.7238   -1.5297    3.7604 H   0  0  0  0  0  0  0  0  0  0  0  0
   -9.5763   -0.8597    7.7011 H   0  0  0  0  0  0  0  0  0  0  0  0
   -7.8738   -1.0607    7.2619 H   0  0  0  0  0  0  0  0  0  0  0  0
  -10.0831   -3.1943    7.1196 H   0  0  0  0  0  0  0  0  0  0  0  0
   -8.7682   -3.1361    8.3114 H   0  0  0  0  0  0  0  0  0  0  0  0
   -9.6489   -9.4250    8.2530 H   0  0  0  0  0  0  0  0  0  0  0  0
  -13.8356  -15.3977    6.0205 H   0  0  0  0  0  0  0  0  0  0  0  0
  -12.9464  -14.0603    5.3435 H   0  0  0  0  0  0  0  0  0  0  0  0
  -13.6921  -14.1754    6.9844 H   0  0  0  0  0  0  0  0  0  0  0  0
  -11.5169  -16.2453    4.3929 H   0  0  0  0  0  0  0  0  0  0  0  0
  -12.9239  -16.4859    5.0500 H   0  0  0  0  0  0  0  0  0  0  0  0
  -12.3107  -18.6094    5.1420 H   0  0  0  0  0  0  0  0  0  0  0  0
  -10.7750  -18.3221    5.9474 H   0  0  0  0  0  0  0  0  0  0  0  0
  -13.6095  -17.8969    6.9639 H   0  0  0  0  0  0  0  0  0  0  0  0
  -12.2626  -18.6444    7.8239 H   0  0  0  0  0  0  0  0  0  0  0  0
  -13.0163  -16.1641    8.1638 H   0  0  0  0  0  0  0  0  0  0  0  0
  1  2  1  0
  2  3  1  0
  3  4  1  0
  4  5  1  0
  5  6  1  0
  6  7  1  0
  7  8  1  0
  8  9  1  0
  9 10  1  0
  2 11  1  0
 11 12  1  0
 12 13  2  0
 12 14  1  0
 14 15  3  0
 15 16  1  0
 16 17  1  0
 16 18  1  0
 18 19  1  0
 19 20  1  0
 20 21  1  0
 10  5  1  0
 21 16  1  0
  1 22  1  0
  1 23  1  0
  1 24  1  0
  2 25  1  0
  3 26  1  0
  3 27  1  0
  4 28  1  0
  4 29  1  0
  6 30  1  0
  6 31  1  0
  7 32  1  0
  7 33  1  0
  9 34  1  0
  9 35  1  0
 10 36  1  0
 10 37  1  0
 11 38  1  0
 17 39  1  0
 17 40  1  0
 17 41  1  0
 18 42  1  0
 18 43  1  0
 19 44  1  0
 19 45  1  0
 20 46  1  0
 20 47  1  0
 21 48  1  0
M  END
>  <Energy>  (745) 
653.30694598926721

>  <compound_id>  (745) 
48924

>  <target_id>  (745) 
1

>  <reference_id>  (745) 
112

>  <inspiration_ids>  (745) 
[95, 112]

>  <energy_score>  (745) 
583.0564750580573

>  <distance_score>  (745) 
7.814789868396057

>  <path>  (745) 
/opt/xchem-fragalysis-2/maxwin/BulkDock/SCRATCH/511021/C48924-P112/C48924-P112.minimised.mol

>  <scratch_subdir>  (745) 
/opt/xchem-fragalysis-2/maxwin/BulkDock/SCRATCH/511021/C48924-P112

>  <fragmenstein_runtime>  (745) 
12.102963209152222

>  <fragmenstein_outcome>  (745) 
too moved

>  <fragmenstein_mode>  (745) 
expansion

>  <fragmenstein_error>  (745) 


$$$$
C22140-P95
     RDKit          3D

 44 46  0  0  0  0  0  0  0  0999 V2000
  -12.1972  -15.8774    6.5177 O   0  0  0  0  0  0  0  0  0  0  0  0
  -11.5810  -15.7399    7.5334 C   0  0  0  0  0  0  0  0  0  0  0  0
  -10.1871  -14.1102    7.5870 N   0  0  0  0  0  0  0  0  0  0  0  0
   -9.8730  -12.6234    6.3197 N   0  0  0  0  0  0  0  0  0  0  0  0
   -9.6464  -10.8241    6.6091 C   0  0  0  0  0  0  0  0  0  0  0  0
   -9.5340  -10.3514    7.7231 O   0  0  0  0  0  0  0  0  0  0  0  0
   -9.8066   -9.2925    5.2262 C   0  0  0  0  0  0  0  0  0  0  0  0
  -10.2735   -7.9904    6.1650 C   0  0  0  0  0  0  0  0  0  0  0  0
  -10.1188   -6.3874    5.6634 C   0  0  0  0  0  0  0  0  0  0  0  0
  -10.5429   -6.8697    4.3032 C   0  0  0  0  0  0  0  0  0  0  0  0
  -10.0887   -8.2274    4.1268 O   0  0  0  0  0  0  0  0  0  0  0  0
  -11.9984  -16.8781    9.2373 N   0  0  0  0  0  0  0  0  0  0  0  0
  -13.0696  -18.2210    9.5767 C   0  0  0  0  0  0  0  0  0  0  0  0
  -14.3851  -18.2264   10.0217 C   0  0  0  0  0  0  0  0  0  0  0  0
  -15.8292  -19.0804   10.4880 C   0  0  0  0  0  0  0  0  0  0  0  0
  -15.7954  -20.3722   10.2246 C   0  0  0  0  0  0  0  0  0  0  0  0
  -14.5158  -20.5014    9.7869 N   0  0  0  0  0  0  0  0  0  0  0  0
  -13.2396  -19.4345   10.4823 C   0  0  0  0  0  0  0  0  0  0  0  0
  -12.4656  -20.3087   12.4319 N   0  0  0  0  0  0  0  0  0  0  0  0
  -12.6601  -22.2430   12.5574 C   0  0  0  0  0  0  0  0  0  0  0  0
  -11.3082  -22.9022   12.7250 C   0  0  0  0  0  0  0  0  0  0  0  0
  -10.3039  -21.8789   13.1257 C   0  0  0  0  0  0  0  0  0  0  0  0
  -10.8085  -20.4288   12.9903 C   0  0  0  0  0  0  0  0  0  0  0  0
   -9.7875  -14.0354    8.5254 H   0  0  0  0  0  0  0  0  0  0  0  0
   -9.8593  -12.7952    5.3473 H   0  0  0  0  0  0  0  0  0  0  0  0
   -9.7600   -9.9760    4.4091 H   0  0  0  0  0  0  0  0  0  0  0  0
   -9.6566   -8.2681    6.9998 H   0  0  0  0  0  0  0  0  0  0  0  0
  -11.1826   -8.1864    6.7354 H   0  0  0  0  0  0  0  0  0  0  0  0
  -10.7176   -5.4761    5.8048 H   0  0  0  0  0  0  0  0  0  0  0  0
   -9.2575   -5.8976    6.1380 H   0  0  0  0  0  0  0  0  0  0  0  0
  -10.0541   -6.5353    3.4383 H   0  0  0  0  0  0  0  0  0  0  0  0
  -11.5998   -6.7253    4.0776 H   0  0  0  0  0  0  0  0  0  0  0  0
  -11.4472  -16.5748   10.0252 H   0  0  0  0  0  0  0  0  0  0  0  0
  -14.4916  -17.3112    9.5237 H   0  0  0  0  0  0  0  0  0  0  0  0
  -16.7674  -18.6005   10.7463 H   0  0  0  0  0  0  0  0  0  0  0  0
  -16.5417  -21.1342   10.1735 H   0  0  0  0  0  0  0  0  0  0  0  0
  -13.5259  -22.5133   13.2000 H   0  0  0  0  0  0  0  0  0  0  0  0
  -13.0857  -22.8186   11.7015 H   0  0  0  0  0  0  0  0  0  0  0  0
  -10.9975  -23.3490   11.7711 H   0  0  0  0  0  0  0  0  0  0  0  0
  -11.3544  -23.7368   13.4315 H   0  0  0  0  0  0  0  0  0  0  0  0
   -9.9363  -22.0648   14.1410 H   0  0  0  0  0  0  0  0  0  0  0  0
   -9.4168  -22.0129   12.4926 H   0  0  0  0  0  0  0  0  0  0  0  0
  -10.8113  -19.8947   13.9234 H   0  0  0  0  0  0  0  0  0  0  0  0
  -10.0795  -19.8829   12.3768 H   0  0  0  0  0  0  0  0  0  0  0  0
  1  2  2  0
  2  3  1  0
  3  4  1  0
  4  5  1  0
  5  6  2  0
  5  7  1  0
  7  8  1  0
  8  9  1  0
  9 10  1  0
 10 11  1  0
  2 12  1  0
 12 13  1  0
 13 14  2  0
 14 15  1  0
 15 16  2  0
 16 17  1  0
 17 18  2  0
 18 19  1  0
 19 20  1  0
 20 21  1  0
 21 22  1  0
 22 23  1  0
 11  7  1  0
 18 13  1  0
 23 19  1  0
  3 24  1  0
  4 25  1  0
  7 26  1  0
  8 27  1  0
  8 28  1  0
  9 29  1  0
  9 30  1  0
 10 31  1  0
 10 32  1  0
 12 33  1  0
 14 34  1  0
 15 35  1  0
 16 36  1  0
 20 37  1  0
 20 38  1  0
 21 39  1  0
 21 40  1  0
 22 41  1  0
 22 42  1  0
 23 43  1  0
 23 44  1  0
M  END
>  <Energy>  (746) 
1696.9794813917626

>  <compound_id>  (746) 
22140

>  <target_id>  (746) 
1

>  <reference_id>  (746) 
95

>  <inspiration_ids>  (746) 
[95, 112]

>  <energy_score>  (746) 
1584.0855238183422

>  <distance_score>  (746) 
8.652350886572274

>  <path>  (746) 
/opt/xchem-fragalysis-2/maxwin/BulkDock/SCRATCH/511021/C22140-P95/C22140-P95.minimised.mol

>  <scratch_subdir>  (746) 
/opt/xchem-fragalysis-2/maxwin/BulkDock/SCRATCH/511021/C22140-P95

>  <fragmenstein_runtime>  (746) 
22.996971368789673

>  <fragmenstein_outcome>  (746) 
too moved

>  <fragmenstein_mode>  (746) 
expansion

>  <fragmenstein_error>  (746) 


$$$$
C22140-P112
     RDKit          3D

 44 46  0  0  0  0  0  0  0  0999 V2000
  -10.1474  -13.6080    9.7827 O   0  0  0  0  0  0  0  0  0  0  0  0
   -9.2061  -13.8541    9.2126 C   0  0  0  0  0  0  0  0  0  0  0  0
   -8.7134  -12.1857    8.1041 N   0  0  0  0  0  0  0  0  0  0  0  0
   -9.4608  -10.2901    7.9727 N   0  0  0  0  0  0  0  0  0  0  0  0
   -8.6121   -8.5723    8.1702 C   0  0  0  0  0  0  0  0  0  0  0  0
   -7.4430   -8.4767    8.5451 O   0  0  0  0  0  0  0  0  0  0  0  0
   -9.3224   -6.6631    7.5855 C   0  0  0  0  0  0  0  0  0  0  0  0
   -8.0706   -5.4412    7.3024 C   0  0  0  0  0  0  0  0  0  0  0  0
   -8.7638   -4.2242    6.7709 C   0  0  0  0  0  0  0  0  0  0  0  0
   -9.8774   -4.8388    5.9994 C   0  0  0  0  0  0  0  0  0  0  0  0
   -9.9685   -6.2660    6.3227 O   0  0  0  0  0  0  0  0  0  0  0  0
   -8.6209  -15.9719    9.2923 N   0  0  0  0  0  0  0  0  0  0  0  0
   -9.9721  -17.7437   10.0787 C   0  0  0  0  0  0  0  0  0  0  0  0
  -10.1929  -18.6817    8.5420 C   0  0  0  0  0  0  0  0  0  0  0  0
  -10.4876  -19.8916    7.9659 C   0  0  0  0  0  0  0  0  0  0  0  0
  -10.4892  -20.6627    8.9664 C   0  0  0  0  0  0  0  0  0  0  0  0
   -9.4553  -20.4312    9.8291 N   0  0  0  0  0  0  0  0  0  0  0  0
   -9.4532  -19.3819   10.7727 C   0  0  0  0  0  0  0  0  0  0  0  0
   -8.6369  -19.8918   11.8020 N   0  0  0  0  0  0  0  0  0  0  0  0
   -9.0486  -21.3154   12.2917 C   0  0  0  0  0  0  0  0  0  0  0  0
   -7.7568  -21.9243   12.8330 C   0  0  0  0  0  0  0  0  0  0  0  0
   -6.5964  -21.0737   12.3418 C   0  0  0  0  0  0  0  0  0  0  0  0
   -7.1660  -19.9683   11.4917 C   0  0  0  0  0  0  0  0  0  0  0  0
   -7.9820  -12.4043    7.5477 H   0  0  0  0  0  0  0  0  0  0  0  0
  -10.3360  -10.1605    7.7647 H   0  0  0  0  0  0  0  0  0  0  0  0
   -9.6370   -5.9465    8.2812 H   0  0  0  0  0  0  0  0  0  0  0  0
   -7.3639   -5.7380    6.5254 H   0  0  0  0  0  0  0  0  0  0  0  0
   -7.5541   -5.1373    8.2155 H   0  0  0  0  0  0  0  0  0  0  0  0
   -9.1468   -3.6048    7.5891 H   0  0  0  0  0  0  0  0  0  0  0  0
   -8.1158   -3.5909    6.1582 H   0  0  0  0  0  0  0  0  0  0  0  0
   -9.7880   -4.6909    4.9246 H   0  0  0  0  0  0  0  0  0  0  0  0
  -10.7934   -4.3319    6.2867 H   0  0  0  0  0  0  0  0  0  0  0  0
   -7.7998  -16.1330    8.6754 H   0  0  0  0  0  0  0  0  0  0  0  0
   -9.1936  -18.5069    8.0209 H   0  0  0  0  0  0  0  0  0  0  0  0
  -10.4915  -20.1899    6.9349 H   0  0  0  0  0  0  0  0  0  0  0  0
  -11.0127  -21.5961    8.9426 H   0  0  0  0  0  0  0  0  0  0  0  0
   -9.8273  -21.2768   13.0737 H   0  0  0  0  0  0  0  0  0  0  0  0
   -9.5789  -21.9706   11.6040 H   0  0  0  0  0  0  0  0  0  0  0  0
   -7.6159  -22.9549   12.5201 H   0  0  0  0  0  0  0  0  0  0  0  0
   -7.8062  -21.9424   13.9195 H   0  0  0  0  0  0  0  0  0  0  0  0
   -6.0543  -20.6159   13.1686 H   0  0  0  0  0  0  0  0  0  0  0  0
   -5.8494  -21.6473   11.7843 H   0  0  0  0  0  0  0  0  0  0  0  0
   -6.6121  -19.0612   11.7741 H   0  0  0  0  0  0  0  0  0  0  0  0
   -6.9530  -20.0827   10.4235 H   0  0  0  0  0  0  0  0  0  0  0  0
  1  2  2  0
  2  3  1  0
  3  4  1  0
  4  5  1  0
  5  6  2  0
  5  7  1  0
  7  8  1  0
  8  9  1  0
  9 10  1  0
 10 11  1  0
  2 12  1  0
 12 13  1  0
 13 14  2  0
 14 15  1  0
 15 16  2  0
 16 17  1  0
 17 18  2  0
 18 19  1  0
 19 20  1  0
 20 21  1  0
 21 22  1  0
 22 23  1  0
 11  7  1  0
 18 13  1  0
 23 19  1  0
  3 24  1  0
  4 25  1  0
  7 26  1  0
  8 27  1  0
  8 28  1  0
  9 29  1  0
  9 30  1  0
 10 31  1  0
 10 32  1  0
 12 33  1  0
 14 34  1  0
 15 35  1  0
 16 36  1  0
 20 37  1  0
 20 38  1  0
 21 39  1  0
 21 40  1  0
 22 41  1  0
 22 42  1  0
 23 43  1  0
 23 44  1  0
M  END
>  <Energy>  (747) 
1727.6697613291292

>  <compound_id>  (747) 
22140

>  <target_id>  (747) 
1

>  <reference_id>  (747) 
112

>  <inspiration_ids>  (747) 
[95, 112]

>  <energy_score>  (747) 
1614.7758037557064

>  <distance_score>  (747) 
8.376832581356528

>  <path>  (747) 
/opt/xchem-fragalysis-2/maxwin/BulkDock/SCRATCH/511021/C22140-P112/C22140-P112.minimised.mol

>  <scratch_subdir>  (747) 
/opt/xchem-fragalysis-2/maxwin/BulkDock/SCRATCH/511021/C22140-P112

>  <fragmenstein_runtime>  (747) 
11.68272614479065

>  <fragmenstein_outcome>  (747) 
too moved

>  <fragmenstein_mode>  (747) 
expansion

>  <fragmenstein_error>  (747) 


$$$$
C62256-P95
     RDKit          3D

 54 55  0  0  0  0  0  0  0  0999 V2000
   -3.1819   -7.8570    2.5398 C   0  0  0  0  0  0  0  0  0  0  0  0
   -4.3136   -8.8405    2.7760 C   0  0  0  0  0  0  0  0  0  0  0  0
   -5.4652   -8.7606    1.8931 N   0  0  0  0  0  0  0  0  0  0  0  0
   -5.6635   -7.4950    1.1935 C   0  0  0  0  0  0  0  0  0  0  0  0
   -6.7488   -7.7982    0.1763 C   0  0  0  0  0  0  0  0  0  0  0  0
   -6.9412   -9.3109    0.2212 C   0  0  0  0  0  0  0  0  0  0  0  0
   -5.7035   -9.8633    0.9464 C   0  0  0  0  0  0  0  0  0  0  0  0
   -5.8686  -11.3399    1.5138 C   0  0  0  0  0  0  0  0  0  0  0  0
   -6.8608  -12.1156    0.8038 N   0  0  0  0  0  0  0  0  0  0  0  0
   -7.8093  -13.1962    1.2869 C   0  0  0  0  0  0  0  0  0  0  0  0
   -8.6292  -13.3796    0.0649 N   0  0  0  0  0  0  0  0  0  0  0  0
   -7.9063  -13.7247    2.3689 N   0  0  0  0  0  0  0  0  0  0  0  0
   -7.3424  -13.8791    3.6980 C   0  0  0  0  0  0  0  0  0  0  0  0
   -8.6411  -13.5006    5.0511 C   0  0  0  0  0  0  0  0  0  0  0  0
   -9.4899  -13.9384    6.7972 C   0  0  0  0  0  0  0  0  0  0  0  0
  -10.9606  -15.2069    6.7872 O   0  0  0  0  0  0  0  0  0  0  0  0
  -11.5186  -16.8510    7.3679 C   0  0  0  0  0  0  0  0  0  0  0  0
  -10.4547  -18.6279    7.7179 C   0  0  0  0  0  0  0  0  0  0  0  0
  -10.8786  -20.0131    8.2275 C   0  0  0  0  0  0  0  0  0  0  0  0
  -11.1414  -21.0186    7.0898 C   0  0  0  0  0  0  0  0  0  0  0  0
  -10.0570  -20.8297    6.2189 O   0  0  0  0  0  0  0  0  0  0  0  0
   -9.9245  -19.4137    6.1616 C   0  0  0  0  0  0  0  0  0  0  0  0
   -2.7732   -7.9580    1.5293 H   0  0  0  0  0  0  0  0  0  0  0  0
   -3.5362   -6.8361    2.6903 H   0  0  0  0  0  0  0  0  0  0  0  0
   -2.3628   -8.0377    3.2422 H   0  0  0  0  0  0  0  0  0  0  0  0
   -3.8923   -9.8522    2.7708 H   0  0  0  0  0  0  0  0  0  0  0  0
   -4.6861   -8.6790    3.7896 H   0  0  0  0  0  0  0  0  0  0  0  0
   -4.7708   -7.1705    0.6472 H   0  0  0  0  0  0  0  0  0  0  0  0
   -5.9652   -6.6933    1.8751 H   0  0  0  0  0  0  0  0  0  0  0  0
   -7.6808   -7.2747    0.4011 H   0  0  0  0  0  0  0  0  0  0  0  0
   -6.4304   -7.4849   -0.8247 H   0  0  0  0  0  0  0  0  0  0  0  0
   -7.8686   -9.5480    0.7530 H   0  0  0  0  0  0  0  0  0  0  0  0
   -7.0324   -9.7186   -0.7915 H   0  0  0  0  0  0  0  0  0  0  0  0
   -4.8748   -9.8926    0.2240 H   0  0  0  0  0  0  0  0  0  0  0  0
   -4.8983  -11.8461    1.4582 H   0  0  0  0  0  0  0  0  0  0  0  0
   -6.1328  -11.3174    2.5573 H   0  0  0  0  0  0  0  0  0  0  0  0
   -6.9965  -11.9687   -0.1654 H   0  0  0  0  0  0  0  0  0  0  0  0
   -8.1961  -12.8656   -0.7068 H   0  0  0  0  0  0  0  0  0  0  0  0
   -8.3469  -12.6856   -0.6327 H   0  0  0  0  0  0  0  0  0  0  0  0
   -6.8825  -14.8607    3.8414 H   0  0  0  0  0  0  0  0  0  0  0  0
   -6.4686  -13.2320    3.7108 H   0  0  0  0  0  0  0  0  0  0  0  0
   -9.3142  -12.6624    4.6702 H   0  0  0  0  0  0  0  0  0  0  0  0
   -7.7831  -13.4276    5.6695 H   0  0  0  0  0  0  0  0  0  0  0  0
   -9.7435  -13.1729    7.4877 H   0  0  0  0  0  0  0  0  0  0  0  0
   -8.5548  -14.1707    7.0411 H   0  0  0  0  0  0  0  0  0  0  0  0
  -11.9787  -16.9228    6.3497 H   0  0  0  0  0  0  0  0  0  0  0  0
  -12.1727  -16.6019    8.2011 H   0  0  0  0  0  0  0  0  0  0  0  0
   -9.4373  -18.4009    7.9977 H   0  0  0  0  0  0  0  0  0  0  0  0
  -11.7228  -19.9334    8.8598 H   0  0  0  0  0  0  0  0  0  0  0  0
  -10.0265  -20.3583    8.7942 H   0  0  0  0  0  0  0  0  0  0  0  0
  -11.2664  -22.0510    7.3985 H   0  0  0  0  0  0  0  0  0  0  0  0
  -12.0296  -20.8450    6.4789 H   0  0  0  0  0  0  0  0  0  0  0  0
   -8.8659  -19.1905    5.9824 H   0  0  0  0  0  0  0  0  0  0  0  0
  -10.5271  -19.0711    5.3066 H   0  0  0  0  0  0  0  0  0  0  0  0
  1  2  1  0
  2  3  1  0
  3  4  1  0
  4  5  1  0
  5  6  1  0
  6  7  1  0
  7  8  1  0
  8  9  1  0
  9 10  1  0
 10 11  1  0
 10 12  2  3
 12 13  1  0
 13 14  1  0
 14 15  1  0
 15 16  1  0
 16 17  1  0
 17 18  1  0
 18 19  1  0
 19 20  1  0
 20 21  1  0
 21 22  1  0
  7  3  1  0
 22 18  1  0
  1 23  1  0
  1 24  1  0
  1 25  1  0
  2 26  1  0
  2 27  1  0
  4 28  1  0
  4 29  1  0
  5 30  1  0
  5 31  1  0
  6 32  1  0
  6 33  1  0
  7 34  1  0
  8 35  1  0
  8 36  1  0
  9 37  1  0
 11 38  1  0
 11 39  1  0
 13 40  1  0
 13 41  1  0
 14 42  1  0
 14 43  1  0
 15 44  1  0
 15 45  1  0
 17 46  1  0
 17 47  1  0
 18 48  1  0
 19 49  1  0
 19 50  1  0
 20 51  1  0
 20 52  1  0
 22 53  1  0
 22 54  1  0
M  END
>  <Energy>  (748) 
624.83550298729938

>  <compound_id>  (748) 
62256

>  <target_id>  (748) 
1

>  <reference_id>  (748) 
95

>  <inspiration_ids>  (748) 
[95, 112]

>  <energy_score>  (748) 
622.2936762439831

>  <distance_score>  (748) 
9.744564560738523

>  <path>  (748) 
/opt/xchem-fragalysis-2/maxwin/BulkDock/SCRATCH/511021/C62256-P95/C62256-P95.minimised.mol

>  <scratch_subdir>  (748) 
/opt/xchem-fragalysis-2/maxwin/BulkDock/SCRATCH/511021/C62256-P95

>  <fragmenstein_runtime>  (748) 
21.624715089797974

>  <fragmenstein_outcome>  (748) 
too moved

>  <fragmenstein_mode>  (748) 
expansion

>  <fragmenstein_error>  (748) 


$$$$
C62256-P112
     RDKit          3D

 54 55  0  0  0  0  0  0  0  0999 V2000
   -4.8777   -2.7116    6.0759 C   0  0  0  0  0  0  0  0  0  0  0  0
   -6.3001   -3.1531    5.7536 C   0  0  0  0  0  0  0  0  0  0  0  0
   -7.2142   -2.9956    6.8906 N   0  0  0  0  0  0  0  0  0  0  0  0
   -7.4694   -1.5612    7.1574 C   0  0  0  0  0  0  0  0  0  0  0  0
   -8.9262   -1.3109    6.8280 C   0  0  0  0  0  0  0  0  0  0  0  0
   -9.5413   -2.6434    7.1596 C   0  0  0  0  0  0  0  0  0  0  0  0
   -8.5289   -3.6372    6.6029 C   0  0  0  0  0  0  0  0  0  0  0  0
   -8.8184   -5.1439    7.1472 C   0  0  0  0  0  0  0  0  0  0  0  0
   -9.6856   -5.6868    6.1086 N   0  0  0  0  0  0  0  0  0  0  0  0
  -10.2069   -7.2255    5.8319 C   0  0  0  0  0  0  0  0  0  0  0  0
  -10.8139   -7.0056    4.5189 N   0  0  0  0  0  0  0  0  0  0  0  0
  -10.0560   -8.2843    6.4995 N   0  0  0  0  0  0  0  0  0  0  0  0
   -9.6066   -9.5545    7.8480 C   0  0  0  0  0  0  0  0  0  0  0  0
   -9.0272  -11.5641    7.8986 C   0  0  0  0  0  0  0  0  0  0  0  0
   -9.0148  -13.3962    9.0733 C   0  0  0  0  0  0  0  0  0  0  0  0
   -7.7012  -14.9719    8.7871 O   0  0  0  0  0  0  0  0  0  0  0  0
   -6.6525  -16.2849    9.8824 C   0  0  0  0  0  0  0  0  0  0  0  0
   -5.9893  -18.1847   10.3552 C   0  0  0  0  0  0  0  0  0  0  0  0
   -4.9867  -18.2273   11.7448 C   0  0  0  0  0  0  0  0  0  0  0  0
   -5.1162  -19.5265   12.4990 C   0  0  0  0  0  0  0  0  0  0  0  0
   -6.4386  -19.8977   12.1927 O   0  0  0  0  0  0  0  0  0  0  0  0
   -6.5821  -19.5511   10.8320 C   0  0  0  0  0  0  0  0  0  0  0  0
   -4.4471   -3.3111    6.8827 H   0  0  0  0  0  0  0  0  0  0  0  0
   -4.2565   -2.8386    5.1860 H   0  0  0  0  0  0  0  0  0  0  0  0
   -4.8139   -1.6588    6.3645 H   0  0  0  0  0  0  0  0  0  0  0  0
   -6.6601   -2.5954    4.8789 H   0  0  0  0  0  0  0  0  0  0  0  0
   -6.2730   -4.2065    5.4581 H   0  0  0  0  0  0  0  0  0  0  0  0
   -7.2903   -1.3779    8.2228 H   0  0  0  0  0  0  0  0  0  0  0  0
   -6.8334   -0.8639    6.6024 H   0  0  0  0  0  0  0  0  0  0  0  0
   -9.0509   -1.0834    5.7628 H   0  0  0  0  0  0  0  0  0  0  0  0
   -9.3543   -0.4933    7.4148 H   0  0  0  0  0  0  0  0  0  0  0  0
   -9.5795   -2.7238    8.2450 H   0  0  0  0  0  0  0  0  0  0  0  0
  -10.5436   -2.7633    6.7430 H   0  0  0  0  0  0  0  0  0  0  0  0
   -8.6590   -3.6288    5.5094 H   0  0  0  0  0  0  0  0  0  0  0  0
   -9.1571   -4.9834    8.1590 H   0  0  0  0  0  0  0  0  0  0  0  0
   -7.8477   -5.6132    7.1164 H   0  0  0  0  0  0  0  0  0  0  0  0
  -10.0548   -5.0769    5.4147 H   0  0  0  0  0  0  0  0  0  0  0  0
  -10.6557   -6.0589    4.2488 H   0  0  0  0  0  0  0  0  0  0  0  0
  -10.8703   -6.0124    4.3507 H   0  0  0  0  0  0  0  0  0  0  0  0
   -8.8355   -8.8627    8.2871 H   0  0  0  0  0  0  0  0  0  0  0  0
  -10.4202   -9.4234    8.5578 H   0  0  0  0  0  0  0  0  0  0  0  0
   -8.0476  -11.2191    8.0165 H   0  0  0  0  0  0  0  0  0  0  0  0
   -9.8135  -11.2186    8.6192 H   0  0  0  0  0  0  0  0  0  0  0  0
   -8.5096  -13.1135   10.0014 H   0  0  0  0  0  0  0  0  0  0  0  0
   -9.9252  -13.6273    9.5349 H   0  0  0  0  0  0  0  0  0  0  0  0
   -6.9848  -16.5318   10.8706 H   0  0  0  0  0  0  0  0  0  0  0  0
   -6.1370  -15.3403   10.5225 H   0  0  0  0  0  0  0  0  0  0  0  0
   -5.4575  -18.4934    9.4302 H   0  0  0  0  0  0  0  0  0  0  0  0
   -3.9270  -18.0692   11.5076 H   0  0  0  0  0  0  0  0  0  0  0  0
   -5.3281  -17.4559   12.4490 H   0  0  0  0  0  0  0  0  0  0  0  0
   -4.4101  -20.2841   12.1410 H   0  0  0  0  0  0  0  0  0  0  0  0
   -4.9796  -19.4023   13.5760 H   0  0  0  0  0  0  0  0  0  0  0  0
   -7.5703  -19.8519   10.4944 H   0  0  0  0  0  0  0  0  0  0  0  0
   -5.8047  -20.2414   10.4840 H   0  0  0  0  0  0  0  0  0  0  0  0
  1  2  1  0
  2  3  1  0
  3  4  1  0
  4  5  1  0
  5  6  1  0
  6  7  1  0
  7  8  1  0
  8  9  1  0
  9 10  1  0
 10 11  1  0
 10 12  2  3
 12 13  1  0
 13 14  1  0
 14 15  1  0
 15 16  1  0
 16 17  1  0
 17 18  1  0
 18 19  1  0
 19 20  1  0
 20 21  1  0
 21 22  1  0
  7  3  1  0
 22 18  1  0
  1 23  1  0
  1 24  1  0
  1 25  1  0
  2 26  1  0
  2 27  1  0
  4 28  1  0
  4 29  1  0
  5 30  1  0
  5 31  1  0
  6 32  1  0
  6 33  1  0
  7 34  1  0
  8 35  1  0
  8 36  1  0
  9 37  1  0
 11 38  1  0
 11 39  1  0
 13 40  1  0
 13 41  1  0
 14 42  1  0
 14 43  1  0
 15 44  1  0
 15 45  1  0
 17 46  1  0
 17 47  1  0
 18 48  1  0
 19 49  1  0
 19 50  1  0
 20 51  1  0
 20 52  1  0
 22 53  1  0
 22 54  1  0
M  END
>  <Energy>  (749) 
1008.3619255314943

>  <compound_id>  (749) 
62256

>  <target_id>  (749) 
1

>  <reference_id>  (749) 
112

>  <inspiration_ids>  (749) 
[95, 112]

>  <energy_score>  (749) 
1005.8200987881662

>  <distance_score>  (749) 
6.572715358794079

>  <path>  (749) 
/opt/xchem-fragalysis-2/maxwin/BulkDock/SCRATCH/511021/C62256-P112/C62256-P112.minimised.mol

>  <scratch_subdir>  (749) 
/opt/xchem-fragalysis-2/maxwin/BulkDock/SCRATCH/511021/C62256-P112

>  <fragmenstein_runtime>  (749) 
22.491848945617676

>  <fragmenstein_outcome>  (749) 
too moved

>  <fragmenstein_mode>  (749) 
expansion

>  <fragmenstein_error>  (749) 


$$$$
C36367-P95
     RDKit          3D

 40 41  0  0  0  0  0  0  0  0999 V2000
  -10.5754  -14.5154   12.3025 O   0  0  0  0  0  0  0  0  0  0  0  0
  -10.1211  -13.4567   12.6086 C   0  0  0  0  0  0  0  0  0  0  0  0
  -10.0765  -12.1920   11.8765 N   0  0  0  0  0  0  0  0  0  0  0  0
  -10.5404  -11.8135   10.3235 C   0  0  0  0  0  0  0  0  0  0  0  0
  -10.7787   -9.8864    9.7098 C   0  0  0  0  0  0  0  0  0  0  0  0
  -12.4649   -9.5086    9.0503 C   0  0  0  0  0  0  0  0  0  0  0  0
  -12.1720   -8.4668    7.4113 C   0  0  0  0  0  0  0  0  0  0  0  0
  -10.3762   -8.0073    6.6346 N   0  0  0  0  0  0  0  0  0  0  0  0
   -9.8286   -6.2228    6.5727 C   0  0  0  0  0  0  0  0  0  0  0  0
   -9.2124   -5.8107    7.5089 O   0  0  0  0  0  0  0  0  0  0  0  0
  -10.1148   -5.0230    5.5830 C   0  0  0  0  0  0  0  0  0  0  0  0
   -9.0817   -4.0195    5.0391 C   0  0  0  0  0  0  0  0  0  0  0  0
   -9.4647   -2.7193    5.2352 C   0  0  0  0  0  0  0  0  0  0  0  0
  -10.4517   -2.8680    6.1256 N   0  0  0  0  0  0  0  0  0  0  0  0
  -10.8296   -4.1258    6.3263 N   0  0  0  0  0  0  0  0  0  0  0  0
   -9.9859   -9.4004    7.9463 C   0  0  0  0  0  0  0  0  0  0  0  0
   -9.3755  -13.5284   14.0367 C   0  0  0  0  0  0  0  0  0  0  0  0
   -9.3326  -12.4055   14.8974 O   0  0  0  0  0  0  0  0  0  0  0  0
   -9.7677  -14.8125   14.9179 C   0  0  0  0  0  0  0  0  0  0  0  0
  -10.5978  -16.0369   14.4719 C   0  0  0  0  0  0  0  0  0  0  0  0
  -10.6268  -16.8849   15.5516 F   0  0  0  0  0  0  0  0  0  0  0  0
  -10.0889  -16.7631   13.4669 F   0  0  0  0  0  0  0  0  0  0  0  0
  -11.8937  -15.7632   14.2219 F   0  0  0  0  0  0  0  0  0  0  0  0
   -9.6847  -11.4725   12.4789 H   0  0  0  0  0  0  0  0  0  0  0  0
   -9.7071  -12.5181   10.1898 H   0  0  0  0  0  0  0  0  0  0  0  0
  -10.7399  -12.4322    9.4850 H   0  0  0  0  0  0  0  0  0  0  0  0
  -10.4105   -9.3458   10.5484 H   0  0  0  0  0  0  0  0  0  0  0  0
  -13.1934  -10.2868    8.9928 H   0  0  0  0  0  0  0  0  0  0  0  0
  -13.0251   -8.8894    9.7855 H   0  0  0  0  0  0  0  0  0  0  0  0
  -12.9860   -7.7509    7.7432 H   0  0  0  0  0  0  0  0  0  0  0  0
  -12.9558   -8.4644    6.5805 H   0  0  0  0  0  0  0  0  0  0  0  0
   -8.0452   -4.1886    4.7820 H   0  0  0  0  0  0  0  0  0  0  0  0
   -9.0047   -1.7674    5.0211 H   0  0  0  0  0  0  0  0  0  0  0  0
  -10.9616   -2.1535    6.6309 H   0  0  0  0  0  0  0  0  0  0  0  0
   -9.5674  -10.3087    7.5027 H   0  0  0  0  0  0  0  0  0  0  0  0
   -9.1073   -8.7863    8.2616 H   0  0  0  0  0  0  0  0  0  0  0  0
   -8.3150  -13.5979   13.7857 H   0  0  0  0  0  0  0  0  0  0  0  0
  -10.1310  -12.3925   15.4505 H   0  0  0  0  0  0  0  0  0  0  0  0
  -10.2747  -14.4364   15.8177 H   0  0  0  0  0  0  0  0  0  0  0  0
   -8.8143  -15.2039   15.3010 H   0  0  0  0  0  0  0  0  0  0  0  0
  1  2  2  0
  2  3  1  0
  3  4  1  0
  4  5  1  0
  5  6  1  0
  6  7  1  0
  7  8  1  0
  8  9  1  0
  9 10  2  0
  9 11  1  0
 11 12  1  0
 12 13  2  0
 13 14  1  0
 14 15  1  0
  8 16  1  0
  2 17  1  0
 17 18  1  0
 17 19  1  0
 19 20  1  0
 20 21  1  0
 20 22  1  0
 20 23  1  0
 16  5  1  0
 15 11  2  0
  3 24  1  0
  4 25  1  0
  4 26  1  0
  5 27  1  0
  6 28  1  0
  6 29  1  0
  7 30  1  0
  7 31  1  0
 12 32  1  0
 13 33  1  0
 14 34  1  0
 16 35  1  0
 16 36  1  0
 17 37  1  0
 18 38  1  0
 19 39  1  0
 19 40  1  0
M  END
>  <Energy>  (750) 
706.72769750275029

>  <compound_id>  (750) 
36367

>  <target_id>  (750) 
1

>  <reference_id>  (750) 
95

>  <inspiration_ids>  (750) 
[95, 112]

>  <energy_score>  (750) 
609.1306802497937

>  <distance_score>  (750) 
9.085568722484973

>  <path>  (750) 
/opt/xchem-fragalysis-2/maxwin/BulkDock/SCRATCH/511021/C36367-P95/C36367-P95.minimised.mol

>  <scratch_subdir>  (750) 
/opt/xchem-fragalysis-2/maxwin/BulkDock/SCRATCH/511021/C36367-P95

>  <fragmenstein_runtime>  (750) 
18.62549352645874

>  <fragmenstein_outcome>  (750) 
too moved

>  <fragmenstein_mode>  (750) 
expansion

>  <fragmenstein_error>  (750) 


$$$$
C36367-P112
     RDKit          3D

 40 41  0  0  0  0  0  0  0  0999 V2000
  -11.0967  -14.7276   12.8716 O   0  0  0  0  0  0  0  0  0  0  0  0
  -10.3603  -13.8065   13.0907 C   0  0  0  0  0  0  0  0  0  0  0  0
   -9.9075  -12.7097   12.2130 N   0  0  0  0  0  0  0  0  0  0  0  0
  -10.1515  -12.4588   10.7326 C   0  0  0  0  0  0  0  0  0  0  0  0
  -10.5176  -10.9050    9.7942 C   0  0  0  0  0  0  0  0  0  0  0  0
  -10.2625   -9.3281    9.6956 C   0  0  0  0  0  0  0  0  0  0  0  0
   -8.7429   -8.9934    8.3350 C   0  0  0  0  0  0  0  0  0  0  0  0
   -9.8851   -8.9540    7.7839 N   0  0  0  0  0  0  0  0  0  0  0  0
  -10.0891   -8.1281    6.2226 C   0  0  0  0  0  0  0  0  0  0  0  0
  -10.0179   -8.5890    5.1152 O   0  0  0  0  0  0  0  0  0  0  0  0
  -10.2235   -6.3440    6.1299 C   0  0  0  0  0  0  0  0  0  0  0  0
   -9.1865   -5.4056    6.7520 C   0  0  0  0  0  0  0  0  0  0  0  0
   -9.3054   -4.1620    6.2031 C   0  0  0  0  0  0  0  0  0  0  0  0
  -10.2063   -4.3616    5.2374 N   0  0  0  0  0  0  0  0  0  0  0  0
  -10.6360   -5.6315    5.0529 N   0  0  0  0  0  0  0  0  0  0  0  0
   -9.6804  -10.4333    8.0752 C   0  0  0  0  0  0  0  0  0  0  0  0
   -9.9543  -13.7944   14.5999 C   0  0  0  0  0  0  0  0  0  0  0  0
   -8.5957  -13.9739   14.9447 O   0  0  0  0  0  0  0  0  0  0  0  0
  -10.8482  -14.8505   15.3832 C   0  0  0  0  0  0  0  0  0  0  0  0
  -10.5563  -16.3406   15.1992 C   0  0  0  0  0  0  0  0  0  0  0  0
   -9.2451  -16.5546   15.4848 F   0  0  0  0  0  0  0  0  0  0  0  0
  -10.8126  -16.8839   14.0022 F   0  0  0  0  0  0  0  0  0  0  0  0
  -11.2762  -17.0653   16.0997 F   0  0  0  0  0  0  0  0  0  0  0  0
   -9.2196  -12.1530   12.7061 H   0  0  0  0  0  0  0  0  0  0  0  0
  -11.0593  -12.9995   10.7722 H   0  0  0  0  0  0  0  0  0  0  0  0
   -9.5689  -13.0903   10.0747 H   0  0  0  0  0  0  0  0  0  0  0  0
  -10.4923  -10.3309   10.7196 H   0  0  0  0  0  0  0  0  0  0  0  0
   -9.6918   -9.0135   10.6287 H   0  0  0  0  0  0  0  0  0  0  0  0
  -11.3249   -9.1864    9.5709 H   0  0  0  0  0  0  0  0  0  0  0  0
   -8.6426   -7.9458    8.2550 H   0  0  0  0  0  0  0  0  0  0  0  0
   -7.9668   -8.6626    9.0812 H   0  0  0  0  0  0  0  0  0  0  0  0
   -8.4103   -5.6160    7.4536 H   0  0  0  0  0  0  0  0  0  0  0  0
   -8.8201   -3.2158    6.3869 H   0  0  0  0  0  0  0  0  0  0  0  0
  -10.6573   -3.6486    4.6738 H   0  0  0  0  0  0  0  0  0  0  0  0
   -8.7479  -11.0529    8.0121 H   0  0  0  0  0  0  0  0  0  0  0  0
   -9.6718  -10.8042    7.0253 H   0  0  0  0  0  0  0  0  0  0  0  0
  -10.2418  -12.8010   14.9661 H   0  0  0  0  0  0  0  0  0  0  0  0
   -8.3742  -14.9243   14.9390 H   0  0  0  0  0  0  0  0  0  0  0  0
  -11.9092  -14.6644   15.1756 H   0  0  0  0  0  0  0  0  0  0  0  0
  -10.7037  -14.6384   16.4511 H   0  0  0  0  0  0  0  0  0  0  0  0
  1  2  2  0
  2  3  1  0
  3  4  1  0
  4  5  1  0
  5  6  1  0
  6  7  1  0
  7  8  1  0
  8  9  1  0
  9 10  2  0
  9 11  1  0
 11 12  1  0
 12 13  2  0
 13 14  1  0
 14 15  1  0
  8 16  1  0
  2 17  1  0
 17 18  1  0
 17 19  1  0
 19 20  1  0
 20 21  1  0
 20 22  1  0
 20 23  1  0
 16  5  1  0
 15 11  2  0
  3 24  1  0
  4 25  1  0
  4 26  1  0
  5 27  1  0
  6 28  1  0
  6 29  1  0
  7 30  1  0
  7 31  1  0
 12 32  1  0
 13 33  1  0
 14 34  1  0
 16 35  1  0
 16 36  1  0
 17 37  1  0
 18 38  1  0
 19 39  1  0
 19 40  1  0
M  END
>  <Energy>  (751) 
647.78475019205018

>  <compound_id>  (751) 
36367

>  <target_id>  (751) 
1

>  <reference_id>  (751) 
112

>  <inspiration_ids>  (751) 
[95, 112]

>  <energy_score>  (751) 
550.1877329390873

>  <distance_score>  (751) 
9.203025913142667

>  <path>  (751) 
/opt/xchem-fragalysis-2/maxwin/BulkDock/SCRATCH/511021/C36367-P112/C36367-P112.minimised.mol

>  <scratch_subdir>  (751) 
/opt/xchem-fragalysis-2/maxwin/BulkDock/SCRATCH/511021/C36367-P112

>  <fragmenstein_runtime>  (751) 
13.05715537071228

>  <fragmenstein_outcome>  (751) 
too moved

>  <fragmenstein_mode>  (751) 
expansion

>  <fragmenstein_error>  (751) 


$$$$
C7357-P95
     RDKit          3D

 40 41  0  0  0  0  0  0  0  0999 V2000
   -9.1947  -18.0844    8.2972 O   0  0  0  0  0  0  0  0  0  0  0  0
  -10.3730  -18.0366    7.9323 C   0  0  0  0  0  0  0  0  0  0  0  0
  -11.0137  -16.0878    7.4168 N   0  0  0  0  0  0  0  0  0  0  0  0
   -9.8939  -14.1711    7.2714 C   0  0  0  0  0  0  0  0  0  0  0  0
   -9.4207  -12.4457    8.2308 C   0  0  0  0  0  0  0  0  0  0  0  0
   -8.2365  -11.0147    7.9396 C   0  0  0  0  0  0  0  0  0  0  0  0
   -8.1599   -9.0935    8.3219 C   0  0  0  0  0  0  0  0  0  0  0  0
   -9.5503   -8.7594    7.8697 N   0  0  0  0  0  0  0  0  0  0  0  0
   -9.9852   -7.6974    6.4101 C   0  0  0  0  0  0  0  0  0  0  0  0
  -10.2060   -7.9870    5.2775 O   0  0  0  0  0  0  0  0  0  0  0  0
   -9.9166   -5.9569    6.5686 C   0  0  0  0  0  0  0  0  0  0  0  0
  -10.3039   -4.9947    5.5732 C   0  0  0  0  0  0  0  0  0  0  0  0
   -9.8146   -3.7580    5.6821 N   0  0  0  0  0  0  0  0  0  0  0  0
   -9.0450   -3.8550    6.7553 N   0  0  0  0  0  0  0  0  0  0  0  0
   -8.8951   -5.1550    7.1619 C   0  0  0  0  0  0  0  0  0  0  0  0
   -9.5213  -10.4683    7.8619 C   0  0  0  0  0  0  0  0  0  0  0  0
  -11.0326  -19.8069    7.8496 C   0  0  0  0  0  0  0  0  0  0  0  0
   -9.7316  -19.9041    6.9007 O   0  0  0  0  0  0  0  0  0  0  0  0
  -11.5033  -21.1588    6.9792 C   0  0  0  0  0  0  0  0  0  0  0  0
  -12.3399  -22.3606    7.5366 C   0  0  0  0  0  0  0  0  0  0  0  0
  -12.4104  -23.3317    6.5868 F   0  0  0  0  0  0  0  0  0  0  0  0
  -11.9740  -22.9525    8.6799 F   0  0  0  0  0  0  0  0  0  0  0  0
  -13.6313  -22.0006    7.7621 F   0  0  0  0  0  0  0  0  0  0  0  0
  -11.9674  -16.1490    7.0465 H   0  0  0  0  0  0  0  0  0  0  0  0
  -10.4839  -13.2826    6.9875 H   0  0  0  0  0  0  0  0  0  0  0  0
   -9.7577  -14.0680    8.4358 H   0  0  0  0  0  0  0  0  0  0  0  0
  -10.1340  -12.4863    9.1317 H   0  0  0  0  0  0  0  0  0  0  0  0
   -7.2612  -10.7337    8.2262 H   0  0  0  0  0  0  0  0  0  0  0  0
   -7.9034  -11.2127    7.0177 H   0  0  0  0  0  0  0  0  0  0  0  0
   -8.0390   -8.6335    9.3278 H   0  0  0  0  0  0  0  0  0  0  0  0
   -7.2411   -8.5581    7.9469 H   0  0  0  0  0  0  0  0  0  0  0  0
  -10.8965   -5.2606    4.7288 H   0  0  0  0  0  0  0  0  0  0  0  0
   -8.5551   -3.0286    7.0808 H   0  0  0  0  0  0  0  0  0  0  0  0
   -8.0496   -5.3481    7.7869 H   0  0  0  0  0  0  0  0  0  0  0  0
   -9.6845  -10.5832    6.7623 H   0  0  0  0  0  0  0  0  0  0  0  0
  -10.1808  -10.0747    8.6061 H   0  0  0  0  0  0  0  0  0  0  0  0
  -10.6141  -20.2412    8.7389 H   0  0  0  0  0  0  0  0  0  0  0  0
   -9.0254  -19.4619    7.4300 H   0  0  0  0  0  0  0  0  0  0  0  0
  -12.0235  -20.8073    6.0755 H   0  0  0  0  0  0  0  0  0  0  0  0
  -10.6404  -21.6802    6.5440 H   0  0  0  0  0  0  0  0  0  0  0  0
  1  2  2  0
  2  3  1  0
  3  4  1  0
  4  5  1  0
  5  6  1  0
  6  7  1  0
  7  8  1  0
  8  9  1  0
  9 10  2  0
  9 11  1  0
 11 12  1  0
 12 13  2  0
 13 14  1  0
 14 15  1  0
  8 16  1  0
  2 17  1  0
 17 18  1  0
 17 19  1  0
 19 20  1  0
 20 21  1  0
 20 22  1  0
 20 23  1  0
 16  5  1  0
 15 11  2  0
  3 24  1  0
  4 25  1  0
  4 26  1  0
  5 27  1  0
  6 28  1  0
  6 29  1  0
  7 30  1  0
  7 31  1  0
 12 32  1  0
 14 33  1  0
 15 34  1  0
 16 35  1  0
 16 36  1  0
 17 37  1  0
 18 38  1  0
 19 39  1  0
 19 40  1  0
M  END
>  <Energy>  (752) 
1353.9622095343157

>  <compound_id>  (752) 
7357

>  <target_id>  (752) 
1

>  <reference_id>  (752) 
95

>  <inspiration_ids>  (752) 
[95, 112]

>  <energy_score>  (752) 
1322.6319305002985

>  <distance_score>  (752) 
7.8346160191045655

>  <path>  (752) 
/opt/xchem-fragalysis-2/maxwin/BulkDock/SCRATCH/511021/C7357-P95/C7357-P95.minimised.mol

>  <scratch_subdir>  (752) 
/opt/xchem-fragalysis-2/maxwin/BulkDock/SCRATCH/511021/C7357-P95

>  <fragmenstein_runtime>  (752) 
20.13532543182373

>  <fragmenstein_outcome>  (752) 
too moved

>  <fragmenstein_mode>  (752) 
expansion

>  <fragmenstein_error>  (752) 


$$$$
C7357-P112
     RDKit          3D

 40 41  0  0  0  0  0  0  0  0999 V2000
  -12.7774  -13.2952    4.5489 O   0  0  0  0  0  0  0  0  0  0  0  0
  -12.7959  -14.0580    5.4996 C   0  0  0  0  0  0  0  0  0  0  0  0
  -11.8104  -14.1593    6.7731 N   0  0  0  0  0  0  0  0  0  0  0  0
  -10.0394  -13.1189    7.2095 C   0  0  0  0  0  0  0  0  0  0  0  0
   -9.2597  -11.2171    7.8849 C   0  0  0  0  0  0  0  0  0  0  0  0
   -9.5386   -9.7932    7.4826 C   0  0  0  0  0  0  0  0  0  0  0  0
   -8.2096   -8.7524    8.2794 C   0  0  0  0  0  0  0  0  0  0  0  0
   -9.0878   -7.8085    8.4021 N   0  0  0  0  0  0  0  0  0  0  0  0
   -9.3089   -6.4196    7.2072 C   0  0  0  0  0  0  0  0  0  0  0  0
  -10.0290   -6.3457    6.2384 O   0  0  0  0  0  0  0  0  0  0  0  0
   -8.4130   -5.1566    7.2976 C   0  0  0  0  0  0  0  0  0  0  0  0
   -7.4127   -4.6969    6.3838 C   0  0  0  0  0  0  0  0  0  0  0  0
   -7.0883   -3.4032    6.4848 N   0  0  0  0  0  0  0  0  0  0  0  0
   -7.9479   -2.9706    7.4059 N   0  0  0  0  0  0  0  0  0  0  0  0
   -8.6936   -3.9761    7.9414 C   0  0  0  0  0  0  0  0  0  0  0  0
  -10.0763   -9.4859    8.5175 C   0  0  0  0  0  0  0  0  0  0  0  0
  -13.8557  -15.1572    5.4232 C   0  0  0  0  0  0  0  0  0  0  0  0
  -13.1558  -16.3876    5.2642 O   0  0  0  0  0  0  0  0  0  0  0  0
  -14.9357  -15.1126    6.4820 C   0  0  0  0  0  0  0  0  0  0  0  0
  -16.1328  -15.9577    6.0521 C   0  0  0  0  0  0  0  0  0  0  0  0
  -15.8216  -17.1651    5.5483 F   0  0  0  0  0  0  0  0  0  0  0  0
  -17.0029  -16.1549    7.0777 F   0  0  0  0  0  0  0  0  0  0  0  0
  -16.8395  -15.3212    5.1004 F   0  0  0  0  0  0  0  0  0  0  0  0
  -12.0780  -14.9959    7.3540 H   0  0  0  0  0  0  0  0  0  0  0  0
   -9.9180  -12.6164    6.2346 H   0  0  0  0  0  0  0  0  0  0  0  0
   -9.2709  -13.8465    7.3277 H   0  0  0  0  0  0  0  0  0  0  0  0
   -8.2188  -11.3118    7.8839 H   0  0  0  0  0  0  0  0  0  0  0  0
   -9.7398   -8.8949    6.7447 H   0  0  0  0  0  0  0  0  0  0  0  0
   -9.5547  -10.4393    6.5315 H   0  0  0  0  0  0  0  0  0  0  0  0
   -7.2018   -8.4924    7.8939 H   0  0  0  0  0  0  0  0  0  0  0  0
   -7.9048   -8.7179    9.3249 H   0  0  0  0  0  0  0  0  0  0  0  0
   -6.9079   -5.2514    5.6156 H   0  0  0  0  0  0  0  0  0  0  0  0
   -7.9661   -1.9836    7.6405 H   0  0  0  0  0  0  0  0  0  0  0  0
   -9.4115   -3.7280    8.6799 H   0  0  0  0  0  0  0  0  0  0  0  0
  -10.4381   -9.5541    9.6128 H   0  0  0  0  0  0  0  0  0  0  0  0
  -11.1506   -9.2582    8.2166 H   0  0  0  0  0  0  0  0  0  0  0  0
  -14.3530  -15.0015    4.4555 H   0  0  0  0  0  0  0  0  0  0  0  0
  -13.0361  -16.7456    6.1627 H   0  0  0  0  0  0  0  0  0  0  0  0
  -15.2889  -14.0778    6.5838 H   0  0  0  0  0  0  0  0  0  0  0  0
  -14.5447  -15.3544    7.4681 H   0  0  0  0  0  0  0  0  0  0  0  0
  1  2  2  0
  2  3  1  0
  3  4  1  0
  4  5  1  0
  5  6  1  0
  6  7  1  0
  7  8  1  0
  8  9  1  0
  9 10  2  0
  9 11  1  0
 11 12  1  0
 12 13  2  0
 13 14  1  0
 14 15  1  0
  8 16  1  0
  2 17  1  0
 17 18  1  0
 17 19  1  0
 19 20  1  0
 20 21  1  0
 20 22  1  0
 20 23  1  0
 16  5  1  0
 15 11  2  0
  3 24  1  0
  4 25  1  0
  4 26  1  0
  5 27  1  0
  6 28  1  0
  6 29  1  0
  7 30  1  0
  7 31  1  0
 12 32  1  0
 14 33  1  0
 15 34  1  0
 16 35  1  0
 16 36  1  0
 17 37  1  0
 18 38  1  0
 19 39  1  0
 19 40  1  0
M  END
>  <Energy>  (753) 
891.24369381840597

>  <compound_id>  (753) 
7357

>  <target_id>  (753) 
1

>  <reference_id>  (753) 
112

>  <inspiration_ids>  (753) 
[95, 112]

>  <energy_score>  (753) 
859.9134147843799

>  <distance_score>  (753) 
10.011274179552055

>  <path>  (753) 
/opt/xchem-fragalysis-2/maxwin/BulkDock/SCRATCH/511021/C7357-P112/C7357-P112.minimised.mol

>  <scratch_subdir>  (753) 
/opt/xchem-fragalysis-2/maxwin/BulkDock/SCRATCH/511021/C7357-P112

>  <fragmenstein_runtime>  (753) 
20.695027351379395

>  <fragmenstein_outcome>  (753) 
too moved

>  <fragmenstein_mode>  (753) 
expansion

>  <fragmenstein_error>  (753) 


$$$$
C7359-P95
     RDKit          3D

 40 42  0  0  0  0  0  0  0  0999 V2000
  -11.7283  -15.1325    6.5223 O   0  0  0  0  0  0  0  0  0  0  0  0
  -12.7434  -15.0466    6.9896 C   0  0  0  0  0  0  0  0  0  0  0  0
  -14.0405  -13.5771    6.7702 N   0  0  0  0  0  0  0  0  0  0  0  0
  -13.6535  -11.8264    5.9009 N   0  0  0  0  0  0  0  0  0  0  0  0
  -13.9037  -10.0992    6.6367 C   0  0  0  0  0  0  0  0  0  0  0  0
  -14.4970   -9.7517    7.6262 O   0  0  0  0  0  0  0  0  0  0  0  0
  -12.7204   -8.4967    5.9333 C   0  0  0  0  0  0  0  0  0  0  0  0
  -10.6972   -7.9558    6.3350 C   0  0  0  0  0  0  0  0  0  0  0  0
  -10.2078   -6.5193    5.5540 N   0  0  0  0  0  0  0  0  0  0  0  0
  -10.6927   -7.0685    4.4739 N   0  0  0  0  0  0  0  0  0  0  0  0
  -10.7513   -8.3682    5.5829 C   0  0  0  0  0  0  0  0  0  0  0  0
  -12.9604  -16.4615    8.3623 N   0  0  0  0  0  0  0  0  0  0  0  0
  -11.9384  -17.8345    8.8581 C   0  0  0  0  0  0  0  0  0  0  0  0
  -10.6326  -18.6894    8.2587 C   0  0  0  0  0  0  0  0  0  0  0  0
  -10.3558  -19.9580    7.5747 C   0  0  0  0  0  0  0  0  0  0  0  0
  -11.2799  -20.8698    7.8602 C   0  0  0  0  0  0  0  0  0  0  0  0
  -11.6159  -22.0161    7.2078 N   0  0  0  0  0  0  0  0  0  0  0  0
  -11.3932  -22.2423    5.7868 C   0  0  0  0  0  0  0  0  0  0  0  0
  -12.2135  -23.5018    5.4811 C   0  0  0  0  0  0  0  0  0  0  0  0
  -12.4070  -24.1820    6.8264 C   0  0  0  0  0  0  0  0  0  0  0  0
  -12.5676  -22.9941    7.7629 C   0  0  0  0  0  0  0  0  0  0  0  0
  -12.1064  -20.4285    8.8238 N   0  0  0  0  0  0  0  0  0  0  0  0
  -12.4714  -18.8803    9.3888 C   0  0  0  0  0  0  0  0  0  0  0  0
  -14.9209  -13.7772    7.2351 H   0  0  0  0  0  0  0  0  0  0  0  0
  -13.0321  -11.7999    5.0968 H   0  0  0  0  0  0  0  0  0  0  0  0
  -10.1350   -7.0853    6.9020 H   0  0  0  0  0  0  0  0  0  0  0  0
  -10.1194   -7.1096    3.6582 H   0  0  0  0  0  0  0  0  0  0  0  0
  -10.0656   -9.1513    5.0486 H   0  0  0  0  0  0  0  0  0  0  0  0
  -13.8547  -16.3212    8.8418 H   0  0  0  0  0  0  0  0  0  0  0  0
  -10.2951  -19.0871    9.2329 H   0  0  0  0  0  0  0  0  0  0  0  0
   -9.6182  -20.0160    6.7917 H   0  0  0  0  0  0  0  0  0  0  0  0
  -11.7373  -21.4009    5.1752 H   0  0  0  0  0  0  0  0  0  0  0  0
  -10.3309  -22.4154    5.5821 H   0  0  0  0  0  0  0  0  0  0  0  0
  -11.7221  -24.1477    4.7475 H   0  0  0  0  0  0  0  0  0  0  0  0
  -13.1885  -23.2122    5.0697 H   0  0  0  0  0  0  0  0  0  0  0  0
  -11.5140  -24.7626    7.0859 H   0  0  0  0  0  0  0  0  0  0  0  0
  -13.2714  -24.8514    6.8433 H   0  0  0  0  0  0  0  0  0  0  0  0
  -12.3353  -23.2993    8.7852 H   0  0  0  0  0  0  0  0  0  0  0  0
  -13.5947  -22.6160    7.7189 H   0  0  0  0  0  0  0  0  0  0  0  0
  -13.4346  -18.8268    9.8936 H   0  0  0  0  0  0  0  0  0  0  0  0
  1  2  2  0
  2  3  1  0
  3  4  1  0
  4  5  1  0
  5  6  2  0
  5  7  1  0
  7  8  1  0
  8  9  2  0
  9 10  1  0
 10 11  1  0
  2 12  1  0
 12 13  1  0
 13 14  2  0
 14 15  1  0
 15 16  2  0
 16 17  1  0
 17 18  1  0
 18 19  1  0
 19 20  1  0
 20 21  1  0
 16 22  1  0
 22 23  2  0
 11  7  2  0
 23 13  1  0
 21 17  1  0
  3 24  1  0
  4 25  1  0
  8 26  1  0
 10 27  1  0
 11 28  1  0
 12 29  1  0
 14 30  1  0
 15 31  1  0
 18 32  1  0
 18 33  1  0
 19 34  1  0
 19 35  1  0
 20 36  1  0
 20 37  1  0
 21 38  1  0
 21 39  1  0
 23 40  1  0
M  END
>  <Energy>  (754) 
1441.63943769457

>  <compound_id>  (754) 
7359

>  <target_id>  (754) 
1

>  <reference_id>  (754) 
95

>  <inspiration_ids>  (754) 
[95, 112]

>  <energy_score>  (754) 
1401.7800415266329

>  <distance_score>  (754) 
7.043409315290444

>  <path>  (754) 
/opt/xchem-fragalysis-2/maxwin/BulkDock/SCRATCH/511021/C7359-P95/C7359-P95.minimised.mol

>  <scratch_subdir>  (754) 
/opt/xchem-fragalysis-2/maxwin/BulkDock/SCRATCH/511021/C7359-P95

>  <fragmenstein_runtime>  (754) 
12.046868801116943

>  <fragmenstein_outcome>  (754) 
too moved

>  <fragmenstein_mode>  (754) 
expansion

>  <fragmenstein_error>  (754) 


$$$$
C7359-P112
     RDKit          3D

 40 42  0  0  0  0  0  0  0  0999 V2000
  -12.6367  -16.2234    8.4936 O   0  0  0  0  0  0  0  0  0  0  0  0
  -12.8565  -16.1830    9.6775 C   0  0  0  0  0  0  0  0  0  0  0  0
  -13.2150  -14.5339   10.9596 N   0  0  0  0  0  0  0  0  0  0  0  0
  -13.4373  -12.5010   10.5751 N   0  0  0  0  0  0  0  0  0  0  0  0
  -12.2901  -11.2683    9.9552 C   0  0  0  0  0  0  0  0  0  0  0  0
  -11.0615  -11.4986    9.7906 O   0  0  0  0  0  0  0  0  0  0  0  0
  -13.0848   -9.8788    9.4969 C   0  0  0  0  0  0  0  0  0  0  0  0
  -14.4374   -9.8550    9.4234 C   0  0  0  0  0  0  0  0  0  0  0  0
  -15.0482   -9.0752    8.5250 N   0  0  0  0  0  0  0  0  0  0  0  0
  -14.1121   -8.6400    7.7958 N   0  0  0  0  0  0  0  0  0  0  0  0
  -13.0318   -9.2532    8.2760 C   0  0  0  0  0  0  0  0  0  0  0  0
  -13.0088  -17.3866   10.7564 N   0  0  0  0  0  0  0  0  0  0  0  0
  -13.0372  -19.3437   10.6142 C   0  0  0  0  0  0  0  0  0  0  0  0
  -13.9513  -20.7016    9.5652 C   0  0  0  0  0  0  0  0  0  0  0  0
  -14.1375  -22.4625    9.9391 C   0  0  0  0  0  0  0  0  0  0  0  0
  -13.7356  -23.0449   11.5375 C   0  0  0  0  0  0  0  0  0  0  0  0
  -13.8546  -24.4514   11.7131 N   0  0  0  0  0  0  0  0  0  0  0  0
  -13.8324  -24.8553   13.1311 C   0  0  0  0  0  0  0  0  0  0  0  0
  -12.4503  -25.4565   13.3603 C   0  0  0  0  0  0  0  0  0  0  0  0
  -12.1771  -26.1260   12.0283 C   0  0  0  0  0  0  0  0  0  0  0  0
  -12.7122  -25.1025   11.0280 C   0  0  0  0  0  0  0  0  0  0  0  0
  -13.1135  -22.1171   12.8037 N   0  0  0  0  0  0  0  0  0  0  0  0
  -12.6941  -20.3804   12.6223 C   0  0  0  0  0  0  0  0  0  0  0  0
  -13.2863  -14.7979   11.9282 H   0  0  0  0  0  0  0  0  0  0  0  0
  -14.3821  -12.1144   10.5420 H   0  0  0  0  0  0  0  0  0  0  0  0
  -14.9874  -10.4853   10.0863 H   0  0  0  0  0  0  0  0  0  0  0  0
  -14.2798   -8.0411    6.9916 H   0  0  0  0  0  0  0  0  0  0  0  0
  -12.1807   -9.0047    7.7087 H   0  0  0  0  0  0  0  0  0  0  0  0
  -13.0965  -17.0402   11.5741 H   0  0  0  0  0  0  0  0  0  0  0  0
  -15.0679  -20.5923    9.7454 H   0  0  0  0  0  0  0  0  0  0  0  0
  -14.6977  -23.1056    9.2663 H   0  0  0  0  0  0  0  0  0  0  0  0
  -14.0782  -24.0683   13.8514 H   0  0  0  0  0  0  0  0  0  0  0  0
  -14.5910  -25.6377   13.2605 H   0  0  0  0  0  0  0  0  0  0  0  0
  -12.4304  -26.1554   14.2007 H   0  0  0  0  0  0  0  0  0  0  0  0
  -11.7111  -24.6683   13.5424 H   0  0  0  0  0  0  0  0  0  0  0  0
  -12.7425  -27.0624   11.9508 H   0  0  0  0  0  0  0  0  0  0  0  0
  -11.1182  -26.3497   11.8719 H   0  0  0  0  0  0  0  0  0  0  0  0
  -13.0457  -25.5887   10.1052 H   0  0  0  0  0  0  0  0  0  0  0  0
  -11.9071  -24.3993   10.7750 H   0  0  0  0  0  0  0  0  0  0  0  0
  -12.3787  -19.9967   13.5923 H   0  0  0  0  0  0  0  0  0  0  0  0
  1  2  2  0
  2  3  1  0
  3  4  1  0
  4  5  1  0
  5  6  2  0
  5  7  1  0
  7  8  1  0
  8  9  2  0
  9 10  1  0
 10 11  1  0
  2 12  1  0
 12 13  1  0
 13 14  2  0
 14 15  1  0
 15 16  2  0
 16 17  1  0
 17 18  1  0
 18 19  1  0
 19 20  1  0
 20 21  1  0
 16 22  1  0
 22 23  2  0
 11  7  2  0
 23 13  1  0
 21 17  1  0
  3 24  1  0
  4 25  1  0
  8 26  1  0
 10 27  1  0
 11 28  1  0
 12 29  1  0
 14 30  1  0
 15 31  1  0
 18 32  1  0
 18 33  1  0
 19 34  1  0
 19 35  1  0
 20 36  1  0
 20 37  1  0
 21 38  1  0
 21 39  1  0
 23 40  1  0
M  END
>  <Energy>  (755) 
1212.3343474941955

>  <compound_id>  (755) 
7359

>  <target_id>  (755) 
1

>  <reference_id>  (755) 
112

>  <inspiration_ids>  (755) 
[95, 112]

>  <energy_score>  (755) 
1172.4749513262555

>  <distance_score>  (755) 
5.883450377716544

>  <path>  (755) 
/opt/xchem-fragalysis-2/maxwin/BulkDock/SCRATCH/511021/C7359-P112/C7359-P112.minimised.mol

>  <scratch_subdir>  (755) 
/opt/xchem-fragalysis-2/maxwin/BulkDock/SCRATCH/511021/C7359-P112

>  <fragmenstein_runtime>  (755) 
19.249638080596924

>  <fragmenstein_outcome>  (755) 
too moved

>  <fragmenstein_mode>  (755) 
expansion

>  <fragmenstein_error>  (755) 


$$$$
C7364-P95
     RDKit          3D

 49 50  0  0  0  0  0  0  0  0999 V2000
   -6.2473   -0.7749    5.6201 C   0  0  0  0  0  0  0  0  0  0  0  0
   -7.0526   -1.7289    6.5058 C   0  0  0  0  0  0  0  0  0  0  0  0
   -7.5968   -0.9722    7.7120 C   0  0  0  0  0  0  0  0  0  0  0  0
   -5.8937   -3.0640    7.0438 S   0  0  0  0  0  0  0  0  0  0  0  0
   -6.9121   -4.5813    7.4680 C   0  0  0  0  0  0  0  0  0  0  0  0
   -8.3746   -4.2903    7.0295 C   0  0  0  0  0  0  0  0  0  0  0  0
   -7.1735   -5.4077    9.1092 C   0  0  0  0  0  0  0  0  0  0  0  0
   -8.0677   -4.8713    9.6852 O   0  0  0  0  0  0  0  0  0  0  0  0
   -6.3761   -6.8817    9.7165 N   0  0  0  0  0  0  0  0  0  0  0  0
   -5.0159   -6.4775   10.7336 C   0  0  0  0  0  0  0  0  0  0  0  0
   -4.4970   -7.5284   11.6648 C   0  0  0  0  0  0  0  0  0  0  0  0
   -5.7981   -7.7023   12.3444 C   0  0  0  0  0  0  0  0  0  0  0  0
   -6.7120   -7.8539   11.0065 C   0  0  0  0  0  0  0  0  0  0  0  0
   -8.4111   -8.8691   11.4825 C   0  0  0  0  0  0  0  0  0  0  0  0
   -9.0930   -9.9657   12.7665 C   0  0  0  0  0  0  0  0  0  0  0  0
   -9.3606  -11.4238   12.9144 N   0  0  0  0  0  0  0  0  0  0  0  0
   -9.9527  -12.3918   11.9883 C   0  0  0  0  0  0  0  0  0  0  0  0
  -10.2948  -12.2759   10.8496 O   0  0  0  0  0  0  0  0  0  0  0  0
  -10.2444  -13.6279   12.5956 C   0  0  0  0  0  0  0  0  0  0  0  0
  -11.4783  -14.3285   12.5686 C   0  0  0  0  0  0  0  0  0  0  0  0
  -11.4952  -15.2680   13.4627 N   0  0  0  0  0  0  0  0  0  0  0  0
  -10.2284  -15.4405   13.4494 N   0  0  0  0  0  0  0  0  0  0  0  0
   -9.6995  -14.1962   13.7025 C   0  0  0  0  0  0  0  0  0  0  0  0
   -5.8527   -1.2879    4.7357 H   0  0  0  0  0  0  0  0  0  0  0  0
   -6.8837    0.0429    5.2636 H   0  0  0  0  0  0  0  0  0  0  0  0
   -5.4092   -0.3262    6.1625 H   0  0  0  0  0  0  0  0  0  0  0  0
   -7.8661   -2.1077    5.8873 H   0  0  0  0  0  0  0  0  0  0  0  0
   -8.2122   -1.6105    8.3480 H   0  0  0  0  0  0  0  0  0  0  0  0
   -8.2305   -0.1401    7.3853 H   0  0  0  0  0  0  0  0  0  0  0  0
   -6.7937   -0.5498    8.3267 H   0  0  0  0  0  0  0  0  0  0  0  0
   -6.6778   -5.2683    6.6538 H   0  0  0  0  0  0  0  0  0  0  0  0
   -8.8678   -3.5409    7.6507 H   0  0  0  0  0  0  0  0  0  0  0  0
   -8.9580   -5.2064    7.1235 H   0  0  0  0  0  0  0  0  0  0  0  0
   -8.4537   -4.0192    5.9735 H   0  0  0  0  0  0  0  0  0  0  0  0
   -4.1810   -6.0114   10.1892 H   0  0  0  0  0  0  0  0  0  0  0  0
   -5.3812   -5.7473   11.4723 H   0  0  0  0  0  0  0  0  0  0  0  0
   -3.7227   -7.1513   12.3388 H   0  0  0  0  0  0  0  0  0  0  0  0
   -4.1378   -8.4371   11.1766 H   0  0  0  0  0  0  0  0  0  0  0  0
   -6.0958   -6.8486   12.9663 H   0  0  0  0  0  0  0  0  0  0  0  0
   -5.7619   -8.5614   13.0224 H   0  0  0  0  0  0  0  0  0  0  0  0
   -6.1211   -8.5908   10.4476 H   0  0  0  0  0  0  0  0  0  0  0  0
   -8.1364   -8.5312   12.4886 H   0  0  0  0  0  0  0  0  0  0  0  0
   -9.1889   -8.8094   10.7792 H   0  0  0  0  0  0  0  0  0  0  0  0
  -10.0913   -9.5865   12.9375 H   0  0  0  0  0  0  0  0  0  0  0  0
   -8.5580   -9.7458   13.7108 H   0  0  0  0  0  0  0  0  0  0  0  0
   -9.2757  -11.8483   13.8298 H   0  0  0  0  0  0  0  0  0  0  0  0
  -12.4249  -14.2444   12.0826 H   0  0  0  0  0  0  0  0  0  0  0  0
   -9.8498  -16.3865   13.3961 H   0  0  0  0  0  0  0  0  0  0  0  0
   -8.8158  -14.0203   14.2758 H   0  0  0  0  0  0  0  0  0  0  0  0
  1  2  1  0
  2  3  1  0
  2  4  1  0
  4  5  1  0
  5  6  1  0
  5  7  1  0
  7  8  2  0
  7  9  1  0
  9 10  1  0
 10 11  1  0
 11 12  1  0
 12 13  1  0
 13 14  1  0
 14 15  1  0
 15 16  1  0
 16 17  1  0
 17 18  2  0
 17 19  1  0
 19 20  1  0
 20 21  2  0
 21 22  1  0
 22 23  1  0
 13  9  1  0
 23 19  2  0
  1 24  1  0
  1 25  1  0
  1 26  1  0
  2 27  1  0
  3 28  1  0
  3 29  1  0
  3 30  1  0
  5 31  1  0
  6 32  1  0
  6 33  1  0
  6 34  1  0
 10 35  1  0
 10 36  1  0
 11 37  1  0
 11 38  1  0
 12 39  1  0
 12 40  1  0
 13 41  1  0
 14 42  1  0
 14 43  1  0
 15 44  1  0
 15 45  1  0
 16 46  1  0
 20 47  1  0
 22 48  1  0
 23 49  1  0
M  END
>  <Energy>  (756) 
462.62624567141933

>  <compound_id>  (756) 
7364

>  <target_id>  (756) 
1

>  <reference_id>  (756) 
95

>  <inspiration_ids>  (756) 
[95, 112]

>  <energy_score>  (756) 
396.8808653245053

>  <distance_score>  (756) 
8.437097426858537

>  <path>  (756) 
/opt/xchem-fragalysis-2/maxwin/BulkDock/SCRATCH/511021/C7364-P95/C7364-P95.minimised.mol

>  <scratch_subdir>  (756) 
/opt/xchem-fragalysis-2/maxwin/BulkDock/SCRATCH/511021/C7364-P95

>  <fragmenstein_runtime>  (756) 
20.455592155456543

>  <fragmenstein_outcome>  (756) 
too moved

>  <fragmenstein_mode>  (756) 
expansion

>  <fragmenstein_error>  (756) 


$$$$
C7364-P112
     RDKit          3D

 49 50  0  0  0  0  0  0  0  0999 V2000
  -12.1567    0.9926    5.4206 C   0  0  0  0  0  0  0  0  0  0  0  0
  -12.1095    0.1490    6.6919 C   0  0  0  0  0  0  0  0  0  0  0  0
  -13.2387   -0.8730    6.7019 C   0  0  0  0  0  0  0  0  0  0  0  0
  -12.3044    1.2699    8.1362 S   0  0  0  0  0  0  0  0  0  0  0  0
  -11.5386    0.2666    9.4837 C   0  0  0  0  0  0  0  0  0  0  0  0
  -10.0241    0.2223    9.2849 C   0  0  0  0  0  0  0  0  0  0  0  0
  -11.8712    0.8912   10.8876 C   0  0  0  0  0  0  0  0  0  0  0  0
  -11.5864    2.0345   11.1392 O   0  0  0  0  0  0  0  0  0  0  0  0
  -12.4337   -0.1448   11.7305 N   0  0  0  0  0  0  0  0  0  0  0  0
  -13.9337   -0.1215   11.6435 C   0  0  0  0  0  0  0  0  0  0  0  0
  -14.5596    0.9850   12.4330 C   0  0  0  0  0  0  0  0  0  0  0  0
  -13.9541    0.6454   13.7391 C   0  0  0  0  0  0  0  0  0  0  0  0
  -12.7498   -0.1564   13.2853 C   0  0  0  0  0  0  0  0  0  0  0  0
  -12.6309   -1.6131   13.8195 C   0  0  0  0  0  0  0  0  0  0  0  0
  -12.6937   -2.0416   15.3176 C   0  0  0  0  0  0  0  0  0  0  0  0
  -12.7616   -3.5359   15.4920 N   0  0  0  0  0  0  0  0  0  0  0  0
  -11.7224   -4.5095   15.7917 C   0  0  0  0  0  0  0  0  0  0  0  0
  -10.5648   -4.3567   16.0533 O   0  0  0  0  0  0  0  0  0  0  0  0
  -12.1659   -5.9645   15.6961 C   0  0  0  0  0  0  0  0  0  0  0  0
  -13.3184   -6.6263   15.1767 C   0  0  0  0  0  0  0  0  0  0  0  0
  -13.2678   -7.9675   15.2299 N   0  0  0  0  0  0  0  0  0  0  0  0
  -12.0822   -8.2106   15.8070 N   0  0  0  0  0  0  0  0  0  0  0  0
  -11.3897   -7.0632   16.0821 C   0  0  0  0  0  0  0  0  0  0  0  0
  -11.3485    1.7323    5.4034 H   0  0  0  0  0  0  0  0  0  0  0  0
  -12.0333    0.3559    4.5372 H   0  0  0  0  0  0  0  0  0  0  0  0
  -13.1111    1.5210    5.3134 H   0  0  0  0  0  0  0  0  0  0  0  0
  -11.1431   -0.3596    6.7319 H   0  0  0  0  0  0  0  0  0  0  0  0
  -13.2078   -1.4732    5.7893 H   0  0  0  0  0  0  0  0  0  0  0  0
  -14.2252   -0.3967    6.7379 H   0  0  0  0  0  0  0  0  0  0  0  0
  -13.1565   -1.5590    7.5513 H   0  0  0  0  0  0  0  0  0  0  0  0
  -11.9491   -0.7468    9.4387 H   0  0  0  0  0  0  0  0  0  0  0  0
   -9.7358   -0.3688    8.4117 H   0  0  0  0  0  0  0  0  0  0  0  0
   -9.5943    1.2259    9.1875 H   0  0  0  0  0  0  0  0  0  0  0  0
   -9.5532   -0.2346   10.1579 H   0  0  0  0  0  0  0  0  0  0  0  0
  -14.3718   -1.1053   11.8590 H   0  0  0  0  0  0  0  0  0  0  0  0
  -14.1855    0.0428   10.5864 H   0  0  0  0  0  0  0  0  0  0  0  0
  -14.2453    1.9733   12.0820 H   0  0  0  0  0  0  0  0  0  0  0  0
  -15.6520    0.9446   12.4406 H   0  0  0  0  0  0  0  0  0  0  0  0
  -13.6775    1.5425   14.3024 H   0  0  0  0  0  0  0  0  0  0  0  0
  -14.6307    0.0524   14.3631 H   0  0  0  0  0  0  0  0  0  0  0  0
  -11.8870    0.3711   13.7120 H   0  0  0  0  0  0  0  0  0  0  0  0
  -11.6682   -1.9696   13.4469 H   0  0  0  0  0  0  0  0  0  0  0  0
  -13.4455   -2.1611   13.3429 H   0  0  0  0  0  0  0  0  0  0  0  0
  -11.8033   -1.6855   15.8443 H   0  0  0  0  0  0  0  0  0  0  0  0
  -13.5874   -1.6331   15.7970 H   0  0  0  0  0  0  0  0  0  0  0  0
  -13.6464   -4.0154   15.3995 H   0  0  0  0  0  0  0  0  0  0  0  0
  -14.1973   -6.1756   14.7353 H   0  0  0  0  0  0  0  0  0  0  0  0
  -11.8041   -9.1740   15.9715 H   0  0  0  0  0  0  0  0  0  0  0  0
  -10.4030   -7.1023   16.5238 H   0  0  0  0  0  0  0  0  0  0  0  0
  1  2  1  0
  2  3  1  0
  2  4  1  0
  4  5  1  0
  5  6  1  0
  5  7  1  0
  7  8  2  0
  7  9  1  0
  9 10  1  0
 10 11  1  0
 11 12  1  0
 12 13  1  0
 13 14  1  0
 14 15  1  0
 15 16  1  0
 16 17  1  0
 17 18  2  0
 17 19  1  0
 19 20  1  0
 20 21  2  0
 21 22  1  0
 22 23  1  0
 13  9  1  0
 23 19  2  0
  1 24  1  0
  1 25  1  0
  1 26  1  0
  2 27  1  0
  3 28  1  0
  3 29  1  0
  3 30  1  0
  5 31  1  0
  6 32  1  0
  6 33  1  0
  6 34  1  0
 10 35  1  0
 10 36  1  0
 11 37  1  0
 11 38  1  0
 12 39  1  0
 12 40  1  0
 13 41  1  0
 14 42  1  0
 14 43  1  0
 15 44  1  0
 15 45  1  0
 16 46  1  0
 20 47  1  0
 22 48  1  0
 23 49  1  0
M  END
>  <Energy>  (757) 
104.86854475747874

>  <compound_id>  (757) 
7364

>  <target_id>  (757) 
1

>  <reference_id>  (757) 
112

>  <inspiration_ids>  (757) 
[95, 112]

>  <energy_score>  (757) 
39.123164410566034

>  <distance_score>  (757) 
12.398808406799242

>  <path>  (757) 
/opt/xchem-fragalysis-2/maxwin/BulkDock/SCRATCH/511021/C7364-P112/C7364-P112.minimised.mol

>  <scratch_subdir>  (757) 
/opt/xchem-fragalysis-2/maxwin/BulkDock/SCRATCH/511021/C7364-P112

>  <fragmenstein_runtime>  (757) 
21.99816608428955

>  <fragmenstein_outcome>  (757) 
too moved

>  <fragmenstein_mode>  (757) 
expansion

>  <fragmenstein_error>  (757) 


$$$$
C7365-P95
     RDKit          3D

 52 53  0  0  0  0  0  0  0  0999 V2000
  -10.2600   -0.4515    2.9615 C   0  0  0  0  0  0  0  0  0  0  0  0
   -9.0194   -0.5832    3.8393 C   0  0  0  0  0  0  0  0  0  0  0  0
   -7.8181    0.0692    3.1544 C   0  0  0  0  0  0  0  0  0  0  0  0
   -8.5887   -2.3372    4.1650 S   0  0  0  0  0  0  0  0  0  0  0  0
  -10.0356   -2.9077    5.1902 C   0  0  0  0  0  0  0  0  0  0  0  0
  -10.3356   -2.0191    6.3920 C   0  0  0  0  0  0  0  0  0  0  0  0
   -9.9961   -4.4774    5.5528 C   0  0  0  0  0  0  0  0  0  0  0  0
  -10.5177   -5.2982    4.8564 O   0  0  0  0  0  0  0  0  0  0  0  0
   -9.2005   -4.6285    6.6981 N   0  0  0  0  0  0  0  0  0  0  0  0
   -7.7792   -4.7086    6.3268 C   0  0  0  0  0  0  0  0  0  0  0  0
   -7.2729   -3.9784    7.4719 C   0  0  0  0  0  0  0  0  0  0  0  0
   -8.0009   -4.8710    8.4594 C   0  0  0  0  0  0  0  0  0  0  0  0
   -8.7822   -6.0077    7.5953 C   0  0  0  0  0  0  0  0  0  0  0  0
   -8.8651   -7.9927    8.3489 C   0  0  0  0  0  0  0  0  0  0  0  0
  -10.3045   -9.1225    9.0050 N   0  0  0  0  0  0  0  0  0  0  0  0
  -10.6459   -9.6676   10.5427 C   0  0  0  0  0  0  0  0  0  0  0  0
  -10.0109   -9.5406   11.5923 O   0  0  0  0  0  0  0  0  0  0  0  0
  -11.8602  -10.5446   10.6960 C   0  0  0  0  0  0  0  0  0  0  0  0
  -12.3394  -10.8577   12.1343 C   0  0  0  0  0  0  0  0  0  0  0  0
  -11.8257  -12.1546   12.7403 C   0  0  0  0  0  0  0  0  0  0  0  0
  -10.5721  -12.4110   13.3541 C   0  0  0  0  0  0  0  0  0  0  0  0
  -10.4722  -13.6415   13.8644 N   0  0  0  0  0  0  0  0  0  0  0  0
  -11.6380  -14.2052   13.5260 N   0  0  0  0  0  0  0  0  0  0  0  0
  -12.4883  -13.3590   12.8777 C   0  0  0  0  0  0  0  0  0  0  0  0
  -10.1557   -1.0072    2.0229 H   0  0  0  0  0  0  0  0  0  0  0  0
  -11.1607   -0.8028    3.4732 H   0  0  0  0  0  0  0  0  0  0  0  0
  -10.4354    0.5993    2.7044 H   0  0  0  0  0  0  0  0  0  0  0  0
   -9.1768   -0.0695    4.7922 H   0  0  0  0  0  0  0  0  0  0  0  0
   -7.5957   -0.3959    2.1872 H   0  0  0  0  0  0  0  0  0  0  0  0
   -6.9204    0.0114    3.7803 H   0  0  0  0  0  0  0  0  0  0  0  0
   -8.0150    1.1313    2.9701 H   0  0  0  0  0  0  0  0  0  0  0  0
  -10.7920   -2.7592    4.4362 H   0  0  0  0  0  0  0  0  0  0  0  0
  -10.7493   -1.0549    6.0811 H   0  0  0  0  0  0  0  0  0  0  0  0
   -9.4478   -1.8229    6.9981 H   0  0  0  0  0  0  0  0  0  0  0  0
  -11.0843   -2.4839    7.0413 H   0  0  0  0  0  0  0  0  0  0  0  0
   -7.5283   -4.1492    5.4336 H   0  0  0  0  0  0  0  0  0  0  0  0
   -7.2518   -5.6489    6.1879 H   0  0  0  0  0  0  0  0  0  0  0  0
   -7.6131   -2.9390    7.5397 H   0  0  0  0  0  0  0  0  0  0  0  0
   -6.1891   -3.9584    7.4470 H   0  0  0  0  0  0  0  0  0  0  0  0
   -8.7644   -4.2956    8.9843 H   0  0  0  0  0  0  0  0  0  0  0  0
   -7.2668   -5.2667    9.1603 H   0  0  0  0  0  0  0  0  0  0  0  0
   -9.7403   -6.2510    7.1758 H   0  0  0  0  0  0  0  0  0  0  0  0
   -9.1803   -8.5598    7.5174 H   0  0  0  0  0  0  0  0  0  0  0  0
   -7.8848   -8.3190    8.7237 H   0  0  0  0  0  0  0  0  0  0  0  0
  -11.0642   -9.3236    8.4023 H   0  0  0  0  0  0  0  0  0  0  0  0
  -12.6827  -10.1908   10.0730 H   0  0  0  0  0  0  0  0  0  0  0  0
  -11.3686  -11.4452   10.3711 H   0  0  0  0  0  0  0  0  0  0  0  0
  -12.1146  -10.0333   12.8202 H   0  0  0  0  0  0  0  0  0  0  0  0
  -13.4348  -10.9343   12.1041 H   0  0  0  0  0  0  0  0  0  0  0  0
   -9.7396  -11.7272   13.4657 H   0  0  0  0  0  0  0  0  0  0  0  0
  -11.7899  -15.1642   13.8001 H   0  0  0  0  0  0  0  0  0  0  0  0
  -13.4643  -13.6886   12.5483 H   0  0  0  0  0  0  0  0  0  0  0  0
  1  2  1  0
  2  3  1  0
  2  4  1  0
  4  5  1  0
  5  6  1  0
  5  7  1  0
  7  8  2  0
  7  9  1  0
  9 10  1  0
 10 11  1  0
 11 12  1  0
 12 13  1  0
 13 14  1  0
 14 15  1  0
 15 16  1  0
 16 17  2  0
 16 18  1  0
 18 19  1  0
 19 20  1  0
 20 21  1  0
 21 22  2  0
 22 23  1  0
 23 24  1  0
 13  9  1  0
 24 20  2  0
  1 25  1  0
  1 26  1  0
  1 27  1  0
  2 28  1  0
  3 29  1  0
  3 30  1  0
  3 31  1  0
  5 32  1  0
  6 33  1  0
  6 34  1  0
  6 35  1  0
 10 36  1  0
 10 37  1  0
 11 38  1  0
 11 39  1  0
 12 40  1  0
 12 41  1  0
 13 42  1  0
 14 43  1  0
 14 44  1  0
 15 45  1  0
 18 46  1  0
 18 47  1  0
 19 48  1  0
 19 49  1  0
 21 50  1  0
 23 51  1  0
 24 52  1  0
M  END
>  <Energy>  (758) 
441.52892234124619

>  <compound_id>  (758) 
7365

>  <target_id>  (758) 
1

>  <reference_id>  (758) 
95

>  <inspiration_ids>  (758) 
[95, 112]

>  <energy_score>  (758) 
365.1499624391529

>  <distance_score>  (758) 
8.93932432388212

>  <path>  (758) 
/opt/xchem-fragalysis-2/maxwin/BulkDock/SCRATCH/511021/C7365-P95/C7365-P95.minimised.mol

>  <scratch_subdir>  (758) 
/opt/xchem-fragalysis-2/maxwin/BulkDock/SCRATCH/511021/C7365-P95

>  <fragmenstein_runtime>  (758) 
21.766887187957764

>  <fragmenstein_outcome>  (758) 
too moved

>  <fragmenstein_mode>  (758) 
expansion

>  <fragmenstein_error>  (758) 


$$$$
C7365-P112
     RDKit          3D

 52 53  0  0  0  0  0  0  0  0999 V2000
   -9.1832   -2.7663    7.2449 C   0  0  0  0  0  0  0  0  0  0  0  0
   -8.0311   -2.1180    6.4897 C   0  0  0  0  0  0  0  0  0  0  0  0
   -8.5470   -1.0261    5.5575 C   0  0  0  0  0  0  0  0  0  0  0  0
   -7.1608   -3.4157    5.5419 S   0  0  0  0  0  0  0  0  0  0  0  0
   -5.5907   -2.5444    5.1692 C   0  0  0  0  0  0  0  0  0  0  0  0
   -5.4132   -2.5130    3.6569 C   0  0  0  0  0  0  0  0  0  0  0  0
   -4.4267   -3.2829    5.8858 C   0  0  0  0  0  0  0  0  0  0  0  0
   -3.8310   -4.1635    5.3533 O   0  0  0  0  0  0  0  0  0  0  0  0
   -4.3154   -2.7605    7.1816 N   0  0  0  0  0  0  0  0  0  0  0  0
   -3.3458   -1.6533    7.1902 C   0  0  0  0  0  0  0  0  0  0  0  0
   -3.7259   -0.6916    8.1822 C   0  0  0  0  0  0  0  0  0  0  0  0
   -4.2878   -1.7522    8.9597 C   0  0  0  0  0  0  0  0  0  0  0  0
   -3.3010   -3.3036    8.6453 C   0  0  0  0  0  0  0  0  0  0  0  0
   -3.6869   -4.6822   10.1935 C   0  0  0  0  0  0  0  0  0  0  0  0
   -3.0520   -4.6711   12.2151 N   0  0  0  0  0  0  0  0  0  0  0  0
   -3.7726   -5.2492   13.5330 C   0  0  0  0  0  0  0  0  0  0  0  0
   -4.8763   -5.7388   13.6720 O   0  0  0  0  0  0  0  0  0  0  0  0
   -2.9131   -5.2961   14.7791 C   0  0  0  0  0  0  0  0  0  0  0  0
   -3.4919   -6.3905   15.8121 C   0  0  0  0  0  0  0  0  0  0  0  0
   -3.8442   -7.8799   15.4357 C   0  0  0  0  0  0  0  0  0  0  0  0
   -5.0965   -8.4131   14.9710 C   0  0  0  0  0  0  0  0  0  0  0  0
   -5.1114   -9.7466   14.8450 N   0  0  0  0  0  0  0  0  0  0  0  0
   -3.9040  -10.1130   15.2883 N   0  0  0  0  0  0  0  0  0  0  0  0
   -3.1070   -9.0432   15.6220 C   0  0  0  0  0  0  0  0  0  0  0  0
   -9.9185   -3.2160    6.5681 H   0  0  0  0  0  0  0  0  0  0  0  0
   -8.8244   -3.5437    7.9284 H   0  0  0  0  0  0  0  0  0  0  0  0
   -9.7058   -2.0148    7.8468 H   0  0  0  0  0  0  0  0  0  0  0  0
   -7.3382   -1.6873    7.2198 H   0  0  0  0  0  0  0  0  0  0  0  0
   -9.2457   -1.4242    4.8126 H   0  0  0  0  0  0  0  0  0  0  0  0
   -7.7320   -0.5234    5.0271 H   0  0  0  0  0  0  0  0  0  0  0  0
   -9.0800   -0.2587    6.1301 H   0  0  0  0  0  0  0  0  0  0  0  0
   -5.6413   -1.5108    5.5263 H   0  0  0  0  0  0  0  0  0  0  0  0
   -4.4801   -2.0002    3.3983 H   0  0  0  0  0  0  0  0  0  0  0  0
   -5.3676   -3.5185    3.2235 H   0  0  0  0  0  0  0  0  0  0  0  0
   -6.2289   -1.9667    3.1701 H   0  0  0  0  0  0  0  0  0  0  0  0
   -2.3053   -1.9549    7.1937 H   0  0  0  0  0  0  0  0  0  0  0  0
   -3.4555   -1.1760    6.2099 H   0  0  0  0  0  0  0  0  0  0  0  0
   -2.8907   -0.1706    8.6415 H   0  0  0  0  0  0  0  0  0  0  0  0
   -4.5619   -0.0298    7.9388 H   0  0  0  0  0  0  0  0  0  0  0  0
   -4.4166   -1.2079    9.8636 H   0  0  0  0  0  0  0  0  0  0  0  0
   -5.3615   -1.8365    8.6625 H   0  0  0  0  0  0  0  0  0  0  0  0
   -3.2030   -4.1277    7.9250 H   0  0  0  0  0  0  0  0  0  0  0  0
   -2.9790   -5.3758    9.7817 H   0  0  0  0  0  0  0  0  0  0  0  0
   -4.3226   -5.5600   10.0387 H   0  0  0  0  0  0  0  0  0  0  0  0
   -2.1387   -4.2508   12.4771 H   0  0  0  0  0  0  0  0  0  0  0  0
   -1.8970   -5.5872   14.4952 H   0  0  0  0  0  0  0  0  0  0  0  0
   -2.8946   -4.3109   15.2523 H   0  0  0  0  0  0  0  0  0  0  0  0
   -2.7730   -6.4443   16.6411 H   0  0  0  0  0  0  0  0  0  0  0  0
   -4.4109   -5.9690   16.2435 H   0  0  0  0  0  0  0  0  0  0  0  0
   -5.9934   -7.8567   14.7232 H   0  0  0  0  0  0  0  0  0  0  0  0
   -3.6891  -11.1038   15.3448 H   0  0  0  0  0  0  0  0  0  0  0  0
   -2.1120   -9.2057   16.0114 H   0  0  0  0  0  0  0  0  0  0  0  0
  1  2  1  0
  2  3  1  0
  2  4  1  0
  4  5  1  0
  5  6  1  0
  5  7  1  0
  7  8  2  0
  7  9  1  0
  9 10  1  0
 10 11  1  0
 11 12  1  0
 12 13  1  0
 13 14  1  0
 14 15  1  0
 15 16  1  0
 16 17  2  0
 16 18  1  0
 18 19  1  0
 19 20  1  0
 20 21  1  0
 21 22  2  0
 22 23  1  0
 23 24  1  0
 13  9  1  0
 24 20  2  0
  1 25  1  0
  1 26  1  0
  1 27  1  0
  2 28  1  0
  3 29  1  0
  3 30  1  0
  3 31  1  0
  5 32  1  0
  6 33  1  0
  6 34  1  0
  6 35  1  0
 10 36  1  0
 10 37  1  0
 11 38  1  0
 11 39  1  0
 12 40  1  0
 12 41  1  0
 13 42  1  0
 14 43  1  0
 14 44  1  0
 15 45  1  0
 18 46  1  0
 18 47  1  0
 19 48  1  0
 19 49  1  0
 21 50  1  0
 23 51  1  0
 24 52  1  0
M  END
>  <Energy>  (759) 
513.40468715926454

>  <compound_id>  (759) 
7365

>  <target_id>  (759) 
1

>  <reference_id>  (759) 
112

>  <inspiration_ids>  (759) 
[95, 112]

>  <energy_score>  (759) 
437.02572725715703

>  <distance_score>  (759) 
12.082738547417083

>  <path>  (759) 
/opt/xchem-fragalysis-2/maxwin/BulkDock/SCRATCH/511021/C7365-P112/C7365-P112.minimised.mol

>  <scratch_subdir>  (759) 
/opt/xchem-fragalysis-2/maxwin/BulkDock/SCRATCH/511021/C7365-P112

>  <fragmenstein_runtime>  (759) 
18.15795350074768

>  <fragmenstein_outcome>  (759) 
too moved

>  <fragmenstein_mode>  (759) 
expansion

>  <fragmenstein_error>  (759) 


$$$$
C7366-P95
     RDKit          3D

 46 47  0  0  0  0  0  0  0  0999 V2000
   -7.0998   -0.5008    6.5784 C   0  0  0  0  0  0  0  0  0  0  0  0
   -8.2587   -1.5078    6.5510 C   0  0  0  0  0  0  0  0  0  0  0  0
   -9.5496   -0.7722    6.1965 C   0  0  0  0  0  0  0  0  0  0  0  0
   -8.3457   -2.2267    8.2482 S   0  0  0  0  0  0  0  0  0  0  0  0
   -9.0119   -4.1777    8.2982 C   0  0  0  0  0  0  0  0  0  0  0  0
   -9.7933   -4.0227    6.9409 C   0  0  0  0  0  0  0  0  0  0  0  0
   -7.7572   -5.2249    8.4577 C   0  0  0  0  0  0  0  0  0  0  0  0
   -6.8737   -4.9138    9.0823 O   0  0  0  0  0  0  0  0  0  0  0  0
   -7.8691   -6.3348    7.7109 N   0  0  0  0  0  0  0  0  0  0  0  0
   -7.4397   -6.0627    6.3986 C   0  0  0  0  0  0  0  0  0  0  0  0
   -7.0699   -4.6846    6.2800 C   0  0  0  0  0  0  0  0  0  0  0  0
   -6.3340   -6.0431    6.3514 C   0  0  0  0  0  0  0  0  0  0  0  0
   -6.5962   -7.9919    7.4887 C   0  0  0  0  0  0  0  0  0  0  0  0
   -5.3941   -9.8396    8.2429 C   0  0  0  0  0  0  0  0  0  0  0  0
   -5.1667  -12.0934    8.3287 N   0  0  0  0  0  0  0  0  0  0  0  0
   -5.7600  -13.5287    9.8084 C   0  0  0  0  0  0  0  0  0  0  0  0
   -6.2919  -13.0956   11.2975 O   0  0  0  0  0  0  0  0  0  0  0  0
   -5.9659  -14.9351    9.7179 C   0  0  0  0  0  0  0  0  0  0  0  0
   -5.6390  -15.3693   11.6051 C   0  0  0  0  0  0  0  0  0  0  0  0
   -5.8241  -16.4077   12.7680 N   0  0  0  0  0  0  0  0  0  0  0  0
   -6.2419  -17.4149   11.9492 N   0  0  0  0  0  0  0  0  0  0  0  0
   -6.5741  -16.4064   10.5690 C   0  0  0  0  0  0  0  0  0  0  0  0
   -6.1496   -0.9933    6.8155 H   0  0  0  0  0  0  0  0  0  0  0  0
   -7.2654    0.3014    7.3072 H   0  0  0  0  0  0  0  0  0  0  0  0
   -6.9826   -0.0300    5.5955 H   0  0  0  0  0  0  0  0  0  0  0  0
   -7.9958   -2.2301    5.7814 H   0  0  0  0  0  0  0  0  0  0  0  0
   -9.4482   -0.2797    5.2226 H   0  0  0  0  0  0  0  0  0  0  0  0
  -10.4083   -1.4429    6.1228 H   0  0  0  0  0  0  0  0  0  0  0  0
   -9.7886    0.0060    6.9305 H   0  0  0  0  0  0  0  0  0  0  0  0
   -9.5054   -4.3335    9.2291 H   0  0  0  0  0  0  0  0  0  0  0  0
  -10.1388   -4.9456    6.4723 H   0  0  0  0  0  0  0  0  0  0  0  0
   -9.2367   -3.6210    6.1045 H   0  0  0  0  0  0  0  0  0  0  0  0
  -10.6783   -3.3910    7.0772 H   0  0  0  0  0  0  0  0  0  0  0  0
   -8.4933   -5.7646    6.1648 H   0  0  0  0  0  0  0  0  0  0  0  0
   -6.8571   -7.1370    5.5040 H   0  0  0  0  0  0  0  0  0  0  0  0
   -6.6671   -3.9571    6.9948 H   0  0  0  0  0  0  0  0  0  0  0  0
   -7.1588   -4.1914    5.2995 H   0  0  0  0  0  0  0  0  0  0  0  0
   -6.4449   -5.7182    5.0172 H   0  0  0  0  0  0  0  0  0  0  0  0
   -5.6308   -5.2155    6.5598 H   0  0  0  0  0  0  0  0  0  0  0  0
   -6.5820   -8.5279    6.5680 H   0  0  0  0  0  0  0  0  0  0  0  0
   -5.2379   -9.5404    9.3204 H   0  0  0  0  0  0  0  0  0  0  0  0
   -4.6842   -9.7811    7.3458 H   0  0  0  0  0  0  0  0  0  0  0  0
   -4.7929  -12.6110    7.5177 H   0  0  0  0  0  0  0  0  0  0  0  0
   -5.2397  -14.6178   12.3404 H   0  0  0  0  0  0  0  0  0  0  0  0
   -6.4107  -18.4159   12.0812 H   0  0  0  0  0  0  0  0  0  0  0  0
   -6.4295  -17.3963   10.1959 H   0  0  0  0  0  0  0  0  0  0  0  0
  1  2  1  0
  2  3  1  0
  2  4  1  0
  4  5  1  0
  5  6  1  0
  5  7  1  0
  7  8  2  0
  7  9  1  0
  9 10  1  0
 10 11  1  0
 11 12  1  0
 12 13  1  0
 13 14  1  0
 14 15  1  0
 15 16  1  0
 16 17  2  0
 16 18  1  0
 18 19  1  0
 19 20  2  0
 20 21  1  0
 21 22  1  0
 13  9  1  0
 22 18  2  0
  1 23  1  0
  1 24  1  0
  1 25  1  0
  2 26  1  0
  3 27  1  0
  3 28  1  0
  3 29  1  0
  5 30  1  0
  6 31  1  0
  6 32  1  0
  6 33  1  0
 10 34  1  0
 10 35  1  0
 11 36  1  0
 11 37  1  0
 12 38  1  0
 12 39  1  0
 13 40  1  0
 14 41  1  0
 14 42  1  0
 15 43  1  0
 19 44  1  0
 21 45  1  0
 22 46  1  0
M  END
>  <Energy>  (760) 
2158.3689965850731

>  <compound_id>  (760) 
7366

>  <target_id>  (760) 
1

>  <reference_id>  (760) 
95

>  <inspiration_ids>  (760) 
[95, 112]

>  <energy_score>  (760) 
2078.9088888082097

>  <distance_score>  (760) 
7.767063095420722

>  <path>  (760) 
/opt/xchem-fragalysis-2/maxwin/BulkDock/SCRATCH/511021/C7366-P95/C7366-P95.minimised.mol

>  <scratch_subdir>  (760) 
/opt/xchem-fragalysis-2/maxwin/BulkDock/SCRATCH/511021/C7366-P95

>  <fragmenstein_runtime>  (760) 
17.300326347351074

>  <fragmenstein_outcome>  (760) 
too moved

>  <fragmenstein_mode>  (760) 
expansion

>  <fragmenstein_error>  (760) 


$$$$
C7366-P112
     RDKit          3D

 46 47  0  0  0  0  0  0  0  0999 V2000
   -9.2735   -1.7549    4.3145 C   0  0  0  0  0  0  0  0  0  0  0  0
   -8.1079   -2.6124    4.8108 C   0  0  0  0  0  0  0  0  0  0  0  0
   -7.4582   -3.3350    3.6370 C   0  0  0  0  0  0  0  0  0  0  0  0
   -8.7650   -3.7653    6.0827 S   0  0  0  0  0  0  0  0  0  0  0  0
   -7.1318   -4.8088    6.8140 C   0  0  0  0  0  0  0  0  0  0  0  0
   -6.2209   -3.6051    6.9899 C   0  0  0  0  0  0  0  0  0  0  0  0
   -7.9424   -6.0304    7.8202 C   0  0  0  0  0  0  0  0  0  0  0  0
   -9.1601   -6.0485    7.5617 O   0  0  0  0  0  0  0  0  0  0  0  0
   -6.9982   -7.1297    9.1205 N   0  0  0  0  0  0  0  0  0  0  0  0
   -6.5356   -8.3480    8.5103 C   0  0  0  0  0  0  0  0  0  0  0  0
   -5.2992   -8.8404    9.2403 C   0  0  0  0  0  0  0  0  0  0  0  0
   -5.7325   -8.4416   10.5974 C   0  0  0  0  0  0  0  0  0  0  0  0
   -7.5804   -8.3871   10.4072 C   0  0  0  0  0  0  0  0  0  0  0  0
   -8.7482   -9.0799   11.9181 C   0  0  0  0  0  0  0  0  0  0  0  0
   -9.2062  -10.4473   12.5806 N   0  0  0  0  0  0  0  0  0  0  0  0
   -8.9435  -10.9949   13.8033 C   0  0  0  0  0  0  0  0  0  0  0  0
   -8.3727  -10.5569   14.7437 O   0  0  0  0  0  0  0  0  0  0  0  0
   -9.5146  -12.4194   13.5547 C   0  0  0  0  0  0  0  0  0  0  0  0
  -10.0721  -12.9630   12.2834 C   0  0  0  0  0  0  0  0  0  0  0  0
  -10.6243  -14.1544   12.3807 N   0  0  0  0  0  0  0  0  0  0  0  0
  -10.2333  -14.5732   13.5345 N   0  0  0  0  0  0  0  0  0  0  0  0
   -9.3555  -13.6661   14.0985 C   0  0  0  0  0  0  0  0  0  0  0  0
  -10.0453   -2.3590    3.8268 H   0  0  0  0  0  0  0  0  0  0  0  0
   -8.9205   -1.0200    3.5821 H   0  0  0  0  0  0  0  0  0  0  0  0
   -9.7385   -1.1967    5.1349 H   0  0  0  0  0  0  0  0  0  0  0  0
   -7.3926   -1.9299    5.2779 H   0  0  0  0  0  0  0  0  0  0  0  0
   -7.0170   -2.6067    2.9468 H   0  0  0  0  0  0  0  0  0  0  0  0
   -6.6542   -4.0062    3.9514 H   0  0  0  0  0  0  0  0  0  0  0  0
   -8.1897   -3.9126    3.0638 H   0  0  0  0  0  0  0  0  0  0  0  0
   -6.8221   -5.3600    5.9317 H   0  0  0  0  0  0  0  0  0  0  0  0
   -6.6907   -2.7686    7.5172 H   0  0  0  0  0  0  0  0  0  0  0  0
   -5.2529   -3.7843    7.4337 H   0  0  0  0  0  0  0  0  0  0  0  0
   -5.9111   -3.2263    6.0100 H   0  0  0  0  0  0  0  0  0  0  0  0
   -6.5988   -8.3316    7.4657 H   0  0  0  0  0  0  0  0  0  0  0  0
   -7.4433   -8.9249    8.5186 H   0  0  0  0  0  0  0  0  0  0  0  0
   -4.3047   -8.4785    9.2960 H   0  0  0  0  0  0  0  0  0  0  0  0
   -5.1020   -9.8159    8.8654 H   0  0  0  0  0  0  0  0  0  0  0  0
   -5.1862   -8.9607   11.3848 H   0  0  0  0  0  0  0  0  0  0  0  0
   -5.4062   -7.4051   10.8264 H   0  0  0  0  0  0  0  0  0  0  0  0
   -7.1373   -7.8940   11.2955 H   0  0  0  0  0  0  0  0  0  0  0  0
   -9.6549   -9.1114   11.3563 H   0  0  0  0  0  0  0  0  0  0  0  0
   -8.3248   -8.7512   12.8738 H   0  0  0  0  0  0  0  0  0  0  0  0
   -9.7826  -11.0640   12.0770 H   0  0  0  0  0  0  0  0  0  0  0  0
  -10.2439  -12.5254   11.3099 H   0  0  0  0  0  0  0  0  0  0  0  0
  -10.4115  -15.5474   13.7381 H   0  0  0  0  0  0  0  0  0  0  0  0
   -8.6642  -14.1029   14.7603 H   0  0  0  0  0  0  0  0  0  0  0  0
  1  2  1  0
  2  3  1  0
  2  4  1  0
  4  5  1  0
  5  6  1  0
  5  7  1  0
  7  8  2  0
  7  9  1  0
  9 10  1  0
 10 11  1  0
 11 12  1  0
 12 13  1  0
 13 14  1  0
 14 15  1  0
 15 16  1  0
 16 17  2  0
 16 18  1  0
 18 19  1  0
 19 20  2  0
 20 21  1  0
 21 22  1  0
 13  9  1  0
 22 18  2  0
  1 23  1  0
  1 24  1  0
  1 25  1  0
  2 26  1  0
  3 27  1  0
  3 28  1  0
  3 29  1  0
  5 30  1  0
  6 31  1  0
  6 32  1  0
  6 33  1  0
 10 34  1  0
 10 35  1  0
 11 36  1  0
 11 37  1  0
 12 38  1  0
 12 39  1  0
 13 40  1  0
 14 41  1  0
 14 42  1  0
 15 43  1  0
 19 44  1  0
 21 45  1  0
 22 46  1  0
M  END
>  <Energy>  (761) 
604.00581876477088

>  <compound_id>  (761) 
7366

>  <target_id>  (761) 
1

>  <reference_id>  (761) 
112

>  <inspiration_ids>  (761) 
[95, 112]

>  <energy_score>  (761) 
524.5457109878888

>  <distance_score>  (761) 
8.71682445005135

>  <path>  (761) 
/opt/xchem-fragalysis-2/maxwin/BulkDock/SCRATCH/511021/C7366-P112/C7366-P112.minimised.mol

>  <scratch_subdir>  (761) 
/opt/xchem-fragalysis-2/maxwin/BulkDock/SCRATCH/511021/C7366-P112

>  <fragmenstein_runtime>  (761) 
15.575876951217651

>  <fragmenstein_outcome>  (761) 
too moved

>  <fragmenstein_mode>  (761) 
expansion

>  <fragmenstein_error>  (761) 


$$$$
C7368-P95
     RDKit          3D

 46 47  0  0  0  0  0  0  0  0999 V2000
   -6.9760   -2.1170    6.1249 C   0  0  0  0  0  0  0  0  0  0  0  0
   -7.9357   -2.9096    5.2445 C   0  0  0  0  0  0  0  0  0  0  0  0
   -8.4563   -2.0428    4.1002 C   0  0  0  0  0  0  0  0  0  0  0  0
   -9.3743   -3.5275    6.1890 S   0  0  0  0  0  0  0  0  0  0  0  0
   -8.5800   -4.8596    7.2950 C   0  0  0  0  0  0  0  0  0  0  0  0
   -8.4394   -4.2145    8.5791 C   0  0  0  0  0  0  0  0  0  0  0  0
   -9.3193   -6.2538    7.1697 C   0  0  0  0  0  0  0  0  0  0  0  0
  -10.0366   -6.2628    6.1880 O   0  0  0  0  0  0  0  0  0  0  0  0
   -8.9850   -7.6726    8.2755 N   0  0  0  0  0  0  0  0  0  0  0  0
   -8.0826   -8.5567    8.2297 C   0  0  0  0  0  0  0  0  0  0  0  0
   -9.4661  -10.2188    7.9156 C   0  0  0  0  0  0  0  0  0  0  0  0
  -10.4662  -10.3369    9.7351 C   0  0  0  0  0  0  0  0  0  0  0  0
  -10.2891  -11.8441   11.1636 C   0  0  0  0  0  0  0  0  0  0  0  0
   -9.9486  -13.1185   11.8837 N   0  0  0  0  0  0  0  0  0  0  0  0
  -10.8110  -14.1594   12.4570 C   0  0  0  0  0  0  0  0  0  0  0  0
  -11.9968  -14.2057   12.5636 O   0  0  0  0  0  0  0  0  0  0  0  0
  -10.2302  -15.4257   12.8960 C   0  0  0  0  0  0  0  0  0  0  0  0
  -11.0972  -16.1214   13.5643 C   0  0  0  0  0  0  0  0  0  0  0  0
  -10.9842  -17.5275   13.5273 N   0  0  0  0  0  0  0  0  0  0  0  0
   -9.8877  -17.6182   12.9411 N   0  0  0  0  0  0  0  0  0  0  0  0
   -9.3444  -16.4807   13.2437 C   0  0  0  0  0  0  0  0  0  0  0  0
   -9.6111   -9.1722    8.2891 C   0  0  0  0  0  0  0  0  0  0  0  0
   -6.5042   -2.7538    6.8792 H   0  0  0  0  0  0  0  0  0  0  0  0
   -6.1664   -1.6919    5.5209 H   0  0  0  0  0  0  0  0  0  0  0  0
   -7.4782   -1.2870    6.6338 H   0  0  0  0  0  0  0  0  0  0  0  0
   -7.4036   -3.7620    4.8116 H   0  0  0  0  0  0  0  0  0  0  0  0
   -9.0024   -1.1661    4.4663 H   0  0  0  0  0  0  0  0  0  0  0  0
   -7.6234   -1.6794    3.4878 H   0  0  0  0  0  0  0  0  0  0  0  0
   -9.1198   -2.6108    3.4386 H   0  0  0  0  0  0  0  0  0  0  0  0
   -7.5935   -5.0219    6.8521 H   0  0  0  0  0  0  0  0  0  0  0  0
   -9.3241   -4.3523    9.1707 H   0  0  0  0  0  0  0  0  0  0  0  0
   -8.2018   -3.1494    8.5214 H   0  0  0  0  0  0  0  0  0  0  0  0
   -7.6577   -4.7636    9.0952 H   0  0  0  0  0  0  0  0  0  0  0  0
   -7.7486   -8.4775    9.2880 H   0  0  0  0  0  0  0  0  0  0  0  0
   -7.0585   -8.4866    7.7918 H   0  0  0  0  0  0  0  0  0  0  0  0
   -8.9127  -11.2305    7.8183 H   0  0  0  0  0  0  0  0  0  0  0  0
   -9.6697  -10.4727    6.8408 H   0  0  0  0  0  0  0  0  0  0  0  0
  -10.5971  -11.4462    9.4388 H   0  0  0  0  0  0  0  0  0  0  0  0
  -10.0063  -11.2623   12.0683 H   0  0  0  0  0  0  0  0  0  0  0  0
   -9.7837  -12.4801   10.4409 H   0  0  0  0  0  0  0  0  0  0  0  0
   -8.9844  -13.3686   12.0359 H   0  0  0  0  0  0  0  0  0  0  0  0
  -11.9750  -15.6857   14.0792 H   0  0  0  0  0  0  0  0  0  0  0  0
   -9.5768  -18.4741   12.4813 H   0  0  0  0  0  0  0  0  0  0  0  0
   -8.3358  -16.5647   13.6730 H   0  0  0  0  0  0  0  0  0  0  0  0
   -8.1383  -10.0179    8.4421 H   0  0  0  0  0  0  0  0  0  0  0  0
  -10.7691   -9.1417    8.1217 H   0  0  0  0  0  0  0  0  0  0  0  0
  1  2  1  0
  2  3  1  0
  2  4  1  0
  4  5  1  0
  5  6  1  0
  5  7  1  0
  7  8  2  0
  7  9  1  0
  9 10  1  0
 10 11  1  0
 11 12  1  0
 12 13  1  0
 13 14  1  0
 14 15  1  0
 15 16  2  0
 15 17  1  0
 17 18  1  0
 18 19  2  0
 19 20  1  0
 20 21  1  0
 12 22  1  0
 22  9  1  0
 21 17  2  0
  1 23  1  0
  1 24  1  0
  1 25  1  0
  2 26  1  0
  3 27  1  0
  3 28  1  0
  3 29  1  0
  5 30  1  0
  6 31  1  0
  6 32  1  0
  6 33  1  0
 10 34  1  0
 10 35  1  0
 11 36  1  0
 11 37  1  0
 12 38  1  0
 13 39  1  0
 13 40  1  0
 14 41  1  0
 18 42  1  0
 20 43  1  0
 21 44  1  0
 22 45  1  0
 22 46  1  0
M  END
>  <Energy>  (762) 
1294.1104459942915

>  <compound_id>  (762) 
7368

>  <target_id>  (762) 
1

>  <reference_id>  (762) 
95

>  <inspiration_ids>  (762) 
[95, 112]

>  <energy_score>  (762) 
1231.710150392637

>  <distance_score>  (762) 
7.614294609935711

>  <path>  (762) 
/opt/xchem-fragalysis-2/maxwin/BulkDock/SCRATCH/511021/C7368-P95/C7368-P95.minimised.mol

>  <scratch_subdir>  (762) 
/opt/xchem-fragalysis-2/maxwin/BulkDock/SCRATCH/511021/C7368-P95

>  <fragmenstein_runtime>  (762) 
12.12831997871399

>  <fragmenstein_outcome>  (762) 
too moved

>  <fragmenstein_mode>  (762) 
expansion

>  <fragmenstein_error>  (762) 


$$$$
C7368-P112
     RDKit          3D

 46 47  0  0  0  0  0  0  0  0999 V2000
   -6.5115   -1.3619    4.7833 C   0  0  0  0  0  0  0  0  0  0  0  0
   -7.8236   -0.6470    4.4700 C   0  0  0  0  0  0  0  0  0  0  0  0
   -7.5700    0.8163    4.1163 C   0  0  0  0  0  0  0  0  0  0  0  0
   -8.9038   -0.7058    5.9542 S   0  0  0  0  0  0  0  0  0  0  0  0
  -10.2933   -1.8186    5.3875 C   0  0  0  0  0  0  0  0  0  0  0  0
  -10.9595   -1.1253    4.1976 C   0  0  0  0  0  0  0  0  0  0  0  0
   -9.7310   -3.2415    5.0659 C   0  0  0  0  0  0  0  0  0  0  0  0
   -9.1434   -3.3977    4.0204 O   0  0  0  0  0  0  0  0  0  0  0  0
   -9.9411   -4.1576    6.1765 N   0  0  0  0  0  0  0  0  0  0  0  0
   -8.8622   -4.0112    7.1562 C   0  0  0  0  0  0  0  0  0  0  0  0
   -8.9154   -4.9132    8.3259 C   0  0  0  0  0  0  0  0  0  0  0  0
   -9.3468   -6.6088    7.6915 C   0  0  0  0  0  0  0  0  0  0  0  0
   -9.5113   -8.6448    8.4726 C   0  0  0  0  0  0  0  0  0  0  0  0
  -10.2838   -9.7832    9.9902 N   0  0  0  0  0  0  0  0  0  0  0  0
  -10.4359  -11.6701   10.1458 C   0  0  0  0  0  0  0  0  0  0  0  0
  -10.2064  -12.5008    9.2763 O   0  0  0  0  0  0  0  0  0  0  0  0
  -10.7033  -12.4342   11.5694 C   0  0  0  0  0  0  0  0  0  0  0  0
   -9.6481  -12.1089   12.5977 C   0  0  0  0  0  0  0  0  0  0  0  0
   -9.2535  -13.0619   13.4396 N   0  0  0  0  0  0  0  0  0  0  0  0
  -10.0668  -14.0535   13.0948 N   0  0  0  0  0  0  0  0  0  0  0  0
  -10.8810  -13.7252   12.0493 C   0  0  0  0  0  0  0  0  0  0  0  0
   -9.5715   -5.6994    6.3325 C   0  0  0  0  0  0  0  0  0  0  0  0
   -6.6759   -2.4159    5.0304 H   0  0  0  0  0  0  0  0  0  0  0  0
   -5.8459   -1.3324    3.9133 H   0  0  0  0  0  0  0  0  0  0  0  0
   -5.9787   -0.8926    5.6185 H   0  0  0  0  0  0  0  0  0  0  0  0
   -8.2887   -1.1267    3.6082 H   0  0  0  0  0  0  0  0  0  0  0  0
   -7.0710    1.3554    4.9298 H   0  0  0  0  0  0  0  0  0  0  0  0
   -6.9256    0.8874    3.2328 H   0  0  0  0  0  0  0  0  0  0  0  0
   -8.5051    1.3360    3.8795 H   0  0  0  0  0  0  0  0  0  0  0  0
  -10.9994   -1.8772    6.2224 H   0  0  0  0  0  0  0  0  0  0  0  0
  -10.3956   -1.2281    3.2661 H   0  0  0  0  0  0  0  0  0  0  0  0
  -11.1276   -0.0588    4.3872 H   0  0  0  0  0  0  0  0  0  0  0  0
  -11.9463   -1.5500    3.9978 H   0  0  0  0  0  0  0  0  0  0  0  0
   -7.8676   -3.9658    6.6766 H   0  0  0  0  0  0  0  0  0  0  0  0
   -8.9676   -3.0004    7.5683 H   0  0  0  0  0  0  0  0  0  0  0  0
   -7.8902   -4.8777    8.7296 H   0  0  0  0  0  0  0  0  0  0  0  0
   -9.5595   -4.5939    9.1240 H   0  0  0  0  0  0  0  0  0  0  0  0
   -8.1784   -6.4606    7.6813 H   0  0  0  0  0  0  0  0  0  0  0  0
   -8.4147   -8.6160    8.7001 H   0  0  0  0  0  0  0  0  0  0  0  0
   -9.6718   -9.3469    7.6866 H   0  0  0  0  0  0  0  0  0  0  0  0
  -10.4517   -9.3568   10.8740 H   0  0  0  0  0  0  0  0  0  0  0  0
   -9.2377  -11.1287   12.7827 H   0  0  0  0  0  0  0  0  0  0  0  0
  -10.1680  -14.8566   13.7047 H   0  0  0  0  0  0  0  0  0  0  0  0
  -11.8046  -14.2628   12.1845 H   0  0  0  0  0  0  0  0  0  0  0  0
  -10.1915   -6.2006    5.5949 H   0  0  0  0  0  0  0  0  0  0  0  0
   -8.5374   -5.6153    6.0293 H   0  0  0  0  0  0  0  0  0  0  0  0
  1  2  1  0
  2  3  1  0
  2  4  1  0
  4  5  1  0
  5  6  1  0
  5  7  1  0
  7  8  2  0
  7  9  1  0
  9 10  1  0
 10 11  1  0
 11 12  1  0
 12 13  1  0
 13 14  1  0
 14 15  1  0
 15 16  2  0
 15 17  1  0
 17 18  1  0
 18 19  2  0
 19 20  1  0
 20 21  1  0
 12 22  1  0
 22  9  1  0
 21 17  2  0
  1 23  1  0
  1 24  1  0
  1 25  1  0
  2 26  1  0
  3 27  1  0
  3 28  1  0
  3 29  1  0
  5 30  1  0
  6 31  1  0
  6 32  1  0
  6 33  1  0
 10 34  1  0
 10 35  1  0
 11 36  1  0
 11 37  1  0
 12 38  1  0
 13 39  1  0
 13 40  1  0
 14 41  1  0
 18 42  1  0
 20 43  1  0
 21 44  1  0
 22 45  1  0
 22 46  1  0
M  END
>  <Energy>  (763) 
596.45834660724347

>  <compound_id>  (763) 
7368

>  <target_id>  (763) 
1

>  <reference_id>  (763) 
112

>  <inspiration_ids>  (763) 
[95, 112]

>  <energy_score>  (763) 
534.0580510055792

>  <distance_score>  (763) 
7.902669665322552

>  <path>  (763) 
/opt/xchem-fragalysis-2/maxwin/BulkDock/SCRATCH/511021/C7368-P112/C7368-P112.minimised.mol

>  <scratch_subdir>  (763) 
/opt/xchem-fragalysis-2/maxwin/BulkDock/SCRATCH/511021/C7368-P112

>  <fragmenstein_runtime>  (763) 
14.150719404220581

>  <fragmenstein_outcome>  (763) 
too moved

>  <fragmenstein_mode>  (763) 
expansion

>  <fragmenstein_error>  (763) 


$$$$
C36371-P95
     RDKit          3D

 46 47  0  0  0  0  0  0  0  0999 V2000
   -9.2575   -1.8408    3.7701 C   0  0  0  0  0  0  0  0  0  0  0  0
   -7.9760   -2.5927    4.0644 C   0  0  0  0  0  0  0  0  0  0  0  0
   -7.4713   -3.3350    2.8292 C   0  0  0  0  0  0  0  0  0  0  0  0
   -7.9098   -3.6874    5.5457 S   0  0  0  0  0  0  0  0  0  0  0  0
   -9.6879   -4.5070    5.8062 C   0  0  0  0  0  0  0  0  0  0  0  0
  -10.3566   -3.2701    6.4742 C   0  0  0  0  0  0  0  0  0  0  0  0
   -9.5219   -5.6071    6.9718 C   0  0  0  0  0  0  0  0  0  0  0  0
   -9.2093   -5.0565    8.0151 O   0  0  0  0  0  0  0  0  0  0  0  0
   -9.6694   -7.2421    6.6068 N   0  0  0  0  0  0  0  0  0  0  0  0
  -10.6529   -8.0477    6.6626 C   0  0  0  0  0  0  0  0  0  0  0  0
  -10.3775   -9.4441    8.1098 C   0  0  0  0  0  0  0  0  0  0  0  0
   -9.2276  -10.9870    7.6573 C   0  0  0  0  0  0  0  0  0  0  0  0
   -9.3363  -13.1901    8.0586 C   0  0  0  0  0  0  0  0  0  0  0  0
   -7.7429  -14.5797    8.6229 N   0  0  0  0  0  0  0  0  0  0  0  0
   -7.5499  -16.4421    8.5999 C   0  0  0  0  0  0  0  0  0  0  0  0
   -8.2871  -17.3342    8.1623 O   0  0  0  0  0  0  0  0  0  0  0  0
   -6.2827  -17.0358    9.3681 C   0  0  0  0  0  0  0  0  0  0  0  0
   -5.0303  -16.4960    9.7224 C   0  0  0  0  0  0  0  0  0  0  0  0
   -4.4273  -17.4290   10.5382 C   0  0  0  0  0  0  0  0  0  0  0  0
   -5.3008  -18.4622   10.6383 N   0  0  0  0  0  0  0  0  0  0  0  0
   -6.3959  -18.2848    9.9019 N   0  0  0  0  0  0  0  0  0  0  0  0
   -9.2078   -8.8473    7.7881 C   0  0  0  0  0  0  0  0  0  0  0  0
   -9.4888   -1.1275    4.5669 H   0  0  0  0  0  0  0  0  0  0  0  0
  -10.0963   -2.5205    3.6296 H   0  0  0  0  0  0  0  0  0  0  0  0
   -9.1580   -1.2537    2.8498 H   0  0  0  0  0  0  0  0  0  0  0  0
   -7.2166   -1.8308    4.2820 H   0  0  0  0  0  0  0  0  0  0  0  0
   -8.1997   -4.0549    2.4571 H   0  0  0  0  0  0  0  0  0  0  0  0
   -7.2804   -2.6266    2.0145 H   0  0  0  0  0  0  0  0  0  0  0  0
   -6.5288   -3.8585    3.0245 H   0  0  0  0  0  0  0  0  0  0  0  0
  -10.2088   -4.8607    4.9286 H   0  0  0  0  0  0  0  0  0  0  0  0
  -11.2983   -3.5375    6.9556 H   0  0  0  0  0  0  0  0  0  0  0  0
   -9.7517   -2.8262    7.2766 H   0  0  0  0  0  0  0  0  0  0  0  0
  -10.5806   -2.4644    5.7805 H   0  0  0  0  0  0  0  0  0  0  0  0
  -10.0293   -8.6544    5.9253 H   0  0  0  0  0  0  0  0  0  0  0  0
  -10.7562   -8.0787    5.5916 H   0  0  0  0  0  0  0  0  0  0  0  0
  -10.5225   -9.3467    9.2528 H   0  0  0  0  0  0  0  0  0  0  0  0
  -11.5315   -9.3438    8.1523 H   0  0  0  0  0  0  0  0  0  0  0  0
   -8.1965  -10.9926    7.9216 H   0  0  0  0  0  0  0  0  0  0  0  0
   -9.9595  -13.6999    7.4348 H   0  0  0  0  0  0  0  0  0  0  0  0
   -9.0468  -13.2392    6.9583 H   0  0  0  0  0  0  0  0  0  0  0  0
   -6.9038  -14.1501    8.9863 H   0  0  0  0  0  0  0  0  0  0  0  0
   -4.6312  -15.5413    9.4247 H   0  0  0  0  0  0  0  0  0  0  0  0
   -3.4783  -17.4317   11.0534 H   0  0  0  0  0  0  0  0  0  0  0  0
   -5.2062  -19.3220   11.1705 H   0  0  0  0  0  0  0  0  0  0  0  0
   -8.0825   -8.5487    8.0569 H   0  0  0  0  0  0  0  0  0  0  0  0
   -9.0289   -8.3831    8.8000 H   0  0  0  0  0  0  0  0  0  0  0  0
  1  2  1  0
  2  3  1  0
  2  4  1  0
  4  5  1  0
  5  6  1  0
  5  7  1  0
  7  8  2  0
  7  9  1  0
  9 10  1  0
 10 11  1  0
 11 12  1  0
 12 13  1  0
 13 14  1  0
 14 15  1  0
 15 16  2  0
 15 17  1  0
 17 18  1  0
 18 19  2  0
 19 20  1  0
 20 21  1  0
 12 22  1  0
 22  9  1  0
 21 17  2  0
  1 23  1  0
  1 24  1  0
  1 25  1  0
  2 26  1  0
  3 27  1  0
  3 28  1  0
  3 29  1  0
  5 30  1  0
  6 31  1  0
  6 32  1  0
  6 33  1  0
 10 34  1  0
 10 35  1  0
 11 36  1  0
 11 37  1  0
 12 38  1  0
 13 39  1  0
 13 40  1  0
 14 41  1  0
 18 42  1  0
 19 43  1  0
 20 44  1  0
 22 45  1  0
 22 46  1  0
M  END
>  <Energy>  (764) 
1325.9095682488862

>  <compound_id>  (764) 
36371

>  <target_id>  (764) 
1

>  <reference_id>  (764) 
95

>  <inspiration_ids>  (764) 
[95, 112]

>  <energy_score>  (764) 
1217.8289830145472

>  <distance_score>  (764) 
7.984410963319107

>  <path>  (764) 
/opt/xchem-fragalysis-2/maxwin/BulkDock/SCRATCH/511021/C36371-P95/C36371-P95.minimised.mol

>  <scratch_subdir>  (764) 
/opt/xchem-fragalysis-2/maxwin/BulkDock/SCRATCH/511021/C36371-P95

>  <fragmenstein_runtime>  (764) 
11.902859687805176

>  <fragmenstein_outcome>  (764) 
too moved

>  <fragmenstein_mode>  (764) 
expansion

>  <fragmenstein_error>  (764) 


$$$$
C36371-P112
     RDKit          3D

 46 47  0  0  0  0  0  0  0  0999 V2000
   -9.4630   -1.1089    7.2889 C   0  0  0  0  0  0  0  0  0  0  0  0
   -9.8315   -1.9040    6.0269 C   0  0  0  0  0  0  0  0  0  0  0  0
  -10.8519   -1.1022    5.2203 C   0  0  0  0  0  0  0  0  0  0  0  0
  -10.5184   -3.5153    6.6413 S   0  0  0  0  0  0  0  0  0  0  0  0
  -10.2634   -5.2402    5.2371 C   0  0  0  0  0  0  0  0  0  0  0  0
   -9.2843   -4.2229    4.5160 C   0  0  0  0  0  0  0  0  0  0  0  0
   -9.8864   -6.3780    6.4363 C   0  0  0  0  0  0  0  0  0  0  0  0
   -9.2493   -5.8397    7.3039 O   0  0  0  0  0  0  0  0  0  0  0  0
  -10.4364   -8.1265    6.5870 N   0  0  0  0  0  0  0  0  0  0  0  0
  -12.2252   -8.5928    7.4008 C   0  0  0  0  0  0  0  0  0  0  0  0
  -12.5080   -9.5426    9.0908 C   0  0  0  0  0  0  0  0  0  0  0  0
  -10.7971   -9.9550    9.7454 C   0  0  0  0  0  0  0  0  0  0  0  0
  -10.5440  -11.9245   10.2090 C   0  0  0  0  0  0  0  0  0  0  0  0
  -10.6731  -12.8062   11.4480 N   0  0  0  0  0  0  0  0  0  0  0  0
  -10.0404  -12.7052   12.7765 C   0  0  0  0  0  0  0  0  0  0  0  0
   -9.3281  -11.8586   13.2389 O   0  0  0  0  0  0  0  0  0  0  0  0
  -10.3656  -13.9107   13.6606 C   0  0  0  0  0  0  0  0  0  0  0  0
   -9.8618  -14.1871   14.9715 C   0  0  0  0  0  0  0  0  0  0  0  0
  -10.3390  -15.4311   15.3205 C   0  0  0  0  0  0  0  0  0  0  0  0
  -11.0970  -15.8330   14.2681 N   0  0  0  0  0  0  0  0  0  0  0  0
  -11.1557  -14.9350   13.2746 N   0  0  0  0  0  0  0  0  0  0  0  0
  -10.0205   -9.4438    7.9874 C   0  0  0  0  0  0  0  0  0  0  0  0
   -9.0322   -0.1389    7.0149 H   0  0  0  0  0  0  0  0  0  0  0  0
   -8.7114   -1.6368    7.8871 H   0  0  0  0  0  0  0  0  0  0  0  0
  -10.3356   -0.9115    7.9225 H   0  0  0  0  0  0  0  0  0  0  0  0
   -8.8980   -2.0076    5.4699 H   0  0  0  0  0  0  0  0  0  0  0  0
  -11.7859   -0.9573    5.7751 H   0  0  0  0  0  0  0  0  0  0  0  0
  -10.4542   -0.1075    4.9879 H   0  0  0  0  0  0  0  0  0  0  0  0
  -11.0889   -1.5742    4.2632 H   0  0  0  0  0  0  0  0  0  0  0  0
  -11.1709   -5.5011    4.7410 H   0  0  0  0  0  0  0  0  0  0  0  0
   -9.8400   -3.3491    4.1738 H   0  0  0  0  0  0  0  0  0  0  0  0
   -8.4107   -3.9929    5.1404 H   0  0  0  0  0  0  0  0  0  0  0  0
   -8.8316   -4.4434    3.5488 H   0  0  0  0  0  0  0  0  0  0  0  0
  -13.0374   -7.8515    7.7011 H   0  0  0  0  0  0  0  0  0  0  0  0
  -13.0561   -8.6359    6.6067 H   0  0  0  0  0  0  0  0  0  0  0  0
  -13.0665   -8.9077    9.8055 H   0  0  0  0  0  0  0  0  0  0  0  0
  -13.2160  -10.3543    9.0040 H   0  0  0  0  0  0  0  0  0  0  0  0
  -10.4348   -9.4313   10.5986 H   0  0  0  0  0  0  0  0  0  0  0  0
  -10.5036  -12.5008    9.3071 H   0  0  0  0  0  0  0  0  0  0  0  0
   -9.5781  -12.3319   10.5159 H   0  0  0  0  0  0  0  0  0  0  0  0
  -11.1508  -13.7155   11.3709 H   0  0  0  0  0  0  0  0  0  0  0  0
   -9.1971  -13.5563   15.5458 H   0  0  0  0  0  0  0  0  0  0  0  0
  -10.1961  -16.0471   16.1959 H   0  0  0  0  0  0  0  0  0  0  0  0
  -11.6014  -16.7044   14.1560 H   0  0  0  0  0  0  0  0  0  0  0  0
   -9.5766  -10.3440    7.5732 H   0  0  0  0  0  0  0  0  0  0  0  0
   -9.1604   -8.8211    8.3069 H   0  0  0  0  0  0  0  0  0  0  0  0
  1  2  1  0
  2  3  1  0
  2  4  1  0
  4  5  1  0
  5  6  1  0
  5  7  1  0
  7  8  2  0
  7  9  1  0
  9 10  1  0
 10 11  1  0
 11 12  1  0
 12 13  1  0
 13 14  1  0
 14 15  1  0
 15 16  2  0
 15 17  1  0
 17 18  1  0
 18 19  2  0
 19 20  1  0
 20 21  1  0
 12 22  1  0
 22  9  1  0
 21 17  2  0
  1 23  1  0
  1 24  1  0
  1 25  1  0
  2 26  1  0
  3 27  1  0
  3 28  1  0
  3 29  1  0
  5 30  1  0
  6 31  1  0
  6 32  1  0
  6 33  1  0
 10 34  1  0
 10 35  1  0
 11 36  1  0
 11 37  1  0
 12 38  1  0
 13 39  1  0
 13 40  1  0
 14 41  1  0
 18 42  1  0
 19 43  1  0
 20 44  1  0
 22 45  1  0
 22 46  1  0
M  END
>  <Energy>  (765) 
709.86776473635496

>  <compound_id>  (765) 
36371

>  <target_id>  (765) 
1

>  <reference_id>  (765) 
112

>  <inspiration_ids>  (765) 
[95, 112]

>  <energy_score>  (765) 
601.7871795020059

>  <distance_score>  (765) 
8.84923949389318

>  <path>  (765) 
/opt/xchem-fragalysis-2/maxwin/BulkDock/SCRATCH/511021/C36371-P112/C36371-P112.minimised.mol

>  <scratch_subdir>  (765) 
/opt/xchem-fragalysis-2/maxwin/BulkDock/SCRATCH/511021/C36371-P112

>  <fragmenstein_runtime>  (765) 
15.759927988052368

>  <fragmenstein_outcome>  (765) 
too moved

>  <fragmenstein_mode>  (765) 
expansion

>  <fragmenstein_error>  (765) 


$$$$
C7369-P95
     RDKit          3D

 53 54  0  0  0  0  0  0  0  0999 V2000
  -10.3743   -2.0143    6.7867 C   0  0  0  0  0  0  0  0  0  0  0  0
   -9.2933   -2.5958    5.8756 C   0  0  0  0  0  0  0  0  0  0  0  0
   -9.5255   -2.2909    4.4008 C   0  0  0  0  0  0  0  0  0  0  0  0
   -9.0160   -4.0101    6.1701 N   0  0  0  0  0  0  0  0  0  0  0  0
   -7.5884   -4.2670    6.0938 C   0  0  0  0  0  0  0  0  0  0  0  0
   -9.9731   -5.0729    5.6413 C   0  0  0  0  0  0  0  0  0  0  0  0
   -9.8587   -6.4895    6.4294 C   0  0  0  0  0  0  0  0  0  0  0  0
   -9.4240   -6.3006    7.5517 O   0  0  0  0  0  0  0  0  0  0  0  0
  -10.4364   -7.9956    5.7408 N   0  0  0  0  0  0  0  0  0  0  0  0
  -10.6866   -9.6385    6.4988 C   0  0  0  0  0  0  0  0  0  0  0  0
  -11.4588  -10.9761    5.4143 C   0  0  0  0  0  0  0  0  0  0  0  0
  -10.5845  -11.5337    4.3056 C   0  0  0  0  0  0  0  0  0  0  0  0
  -10.1447  -12.7615    5.0042 C   0  0  0  0  0  0  0  0  0  0  0  0
  -11.2240  -12.7750    6.0669 C   0  0  0  0  0  0  0  0  0  0  0  0
  -12.4130  -12.1552    5.5055 N   0  0  0  0  0  0  0  0  0  0  0  0
  -13.5491  -12.3744    6.3377 C   0  0  0  0  0  0  0  0  0  0  0  0
  -13.9924  -11.7147    7.2469 O   0  0  0  0  0  0  0  0  0  0  0  0
  -14.3636  -13.6627    5.9133 C   0  0  0  0  0  0  0  0  0  0  0  0
  -13.8204  -15.1194    5.9542 C   0  0  0  0  0  0  0  0  0  0  0  0
  -13.9930  -16.0155    7.1806 C   0  0  0  0  0  0  0  0  0  0  0  0
  -14.9422  -15.9684    8.2335 C   0  0  0  0  0  0  0  0  0  0  0  0
  -14.8386  -16.9801    9.1014 N   0  0  0  0  0  0  0  0  0  0  0  0
  -13.7921  -17.6850    8.6461 N   0  0  0  0  0  0  0  0  0  0  0  0
  -13.2899  -17.1768    7.4772 C   0  0  0  0  0  0  0  0  0  0  0  0
  -10.6333   -0.9941    6.4836 H   0  0  0  0  0  0  0  0  0  0  0  0
  -11.2920   -2.6014    6.8054 H   0  0  0  0  0  0  0  0  0  0  0  0
  -10.0018   -1.9596    7.8153 H   0  0  0  0  0  0  0  0  0  0  0  0
   -8.4015   -2.0097    6.1435 H   0  0  0  0  0  0  0  0  0  0  0  0
  -10.4558   -2.7193    4.0465 H   0  0  0  0  0  0  0  0  0  0  0  0
   -9.5771   -1.2092    4.2348 H   0  0  0  0  0  0  0  0  0  0  0  0
   -8.7119   -2.6785    3.7789 H   0  0  0  0  0  0  0  0  0  0  0  0
   -7.3315   -5.2643    6.4332 H   0  0  0  0  0  0  0  0  0  0  0  0
   -7.1864   -4.1152    5.0865 H   0  0  0  0  0  0  0  0  0  0  0  0
   -7.0400   -3.5965    6.7670 H   0  0  0  0  0  0  0  0  0  0  0  0
  -10.1415   -5.1185    4.6019 H   0  0  0  0  0  0  0  0  0  0  0  0
  -10.9054   -4.6729    6.0049 H   0  0  0  0  0  0  0  0  0  0  0  0
  -10.6520   -7.8596    4.7820 H   0  0  0  0  0  0  0  0  0  0  0  0
   -9.9500   -9.9982    7.2028 H   0  0  0  0  0  0  0  0  0  0  0  0
  -11.5523   -9.4152    7.1374 H   0  0  0  0  0  0  0  0  0  0  0  0
  -12.3679  -10.4538    5.1223 H   0  0  0  0  0  0  0  0  0  0  0  0
  -11.2025  -11.8111    3.4364 H   0  0  0  0  0  0  0  0  0  0  0  0
   -9.7873  -10.9716    3.8847 H   0  0  0  0  0  0  0  0  0  0  0  0
   -9.1613  -12.7404    5.4674 H   0  0  0  0  0  0  0  0  0  0  0  0
  -10.1967  -13.6237    4.3320 H   0  0  0  0  0  0  0  0  0  0  0  0
  -11.4699  -13.8245    6.0989 H   0  0  0  0  0  0  0  0  0  0  0  0
  -10.8681  -12.3718    7.0217 H   0  0  0  0  0  0  0  0  0  0  0  0
  -15.3138  -13.6249    6.4617 H   0  0  0  0  0  0  0  0  0  0  0  0
  -14.6323  -13.4596    4.8657 H   0  0  0  0  0  0  0  0  0  0  0  0
  -12.7788  -15.1638    5.6343 H   0  0  0  0  0  0  0  0  0  0  0  0
  -14.3674  -15.6552    5.1629 H   0  0  0  0  0  0  0  0  0  0  0  0
  -15.7221  -15.2355    8.3954 H   0  0  0  0  0  0  0  0  0  0  0  0
  -13.4868  -18.5013    9.1708 H   0  0  0  0  0  0  0  0  0  0  0  0
  -12.4820  -17.6824    6.9682 H   0  0  0  0  0  0  0  0  0  0  0  0
  1  2  1  0
  2  3  1  0
  2  4  1  0
  4  5  1  0
  4  6  1  0
  6  7  1  0
  7  8  2  0
  7  9  1  0
  9 10  1  0
 10 11  1  0
 11 12  1  0
 12 13  1  0
 13 14  1  0
 14 15  1  0
 15 16  1  0
 16 17  2  0
 16 18  1  0
 18 19  1  0
 19 20  1  0
 20 21  1  0
 21 22  2  0
 22 23  1  0
 23 24  1  0
 15 11  1  0
 24 20  2  0
  1 25  1  0
  1 26  1  0
  1 27  1  0
  2 28  1  0
  3 29  1  0
  3 30  1  0
  3 31  1  0
  5 32  1  0
  5 33  1  0
  5 34  1  0
  6 35  1  0
  6 36  1  0
  9 37  1  0
 10 38  1  0
 10 39  1  0
 11 40  1  0
 12 41  1  0
 12 42  1  0
 13 43  1  0
 13 44  1  0
 14 45  1  0
 14 46  1  0
 18 47  1  0
 18 48  1  0
 19 49  1  0
 19 50  1  0
 21 51  1  0
 23 52  1  0
 24 53  1  0
M  END
>  <Energy>  (766) 
293.60198709001099

>  <compound_id>  (766) 
7369

>  <target_id>  (766) 
1

>  <reference_id>  (766) 
95

>  <inspiration_ids>  (766) 
[95, 112]

>  <energy_score>  (766) 
189.79599496351187

>  <distance_score>  (766) 
10.954055202880173

>  <path>  (766) 
/opt/xchem-fragalysis-2/maxwin/BulkDock/SCRATCH/511021/C7369-P95/C7369-P95.minimised.mol

>  <scratch_subdir>  (766) 
/opt/xchem-fragalysis-2/maxwin/BulkDock/SCRATCH/511021/C7369-P95

>  <fragmenstein_runtime>  (766) 
23.562816619873047

>  <fragmenstein_outcome>  (766) 
too moved

>  <fragmenstein_mode>  (766) 
expansion

>  <fragmenstein_error>  (766) 


$$$$
C7369-P112
     RDKit          3D

 53 54  0  0  0  0  0  0  0  0999 V2000
   -6.6218    0.6971    7.5251 C   0  0  0  0  0  0  0  0  0  0  0  0
   -6.9708    0.6685    6.0305 C   0  0  0  0  0  0  0  0  0  0  0  0
   -8.1880    1.5890    5.8314 C   0  0  0  0  0  0  0  0  0  0  0  0
   -7.1768   -0.7354    5.6120 N   0  0  0  0  0  0  0  0  0  0  0  0
   -7.9961   -0.8641    4.3980 C   0  0  0  0  0  0  0  0  0  0  0  0
   -5.8749   -1.4258    5.3900 C   0  0  0  0  0  0  0  0  0  0  0  0
   -6.0736   -2.9588    5.3745 C   0  0  0  0  0  0  0  0  0  0  0  0
   -5.6228   -3.6154    4.4798 O   0  0  0  0  0  0  0  0  0  0  0  0
   -6.8389   -3.3436    6.5277 N   0  0  0  0  0  0  0  0  0  0  0  0
   -7.2278   -4.6565    7.0207 C   0  0  0  0  0  0  0  0  0  0  0  0
   -8.6771   -4.8373    7.5543 C   0  0  0  0  0  0  0  0  0  0  0  0
   -9.5227   -3.7585    6.8553 C   0  0  0  0  0  0  0  0  0  0  0  0
   -9.4595   -4.4717    5.5745 C   0  0  0  0  0  0  0  0  0  0  0  0
   -9.5302   -5.9459    6.1385 C   0  0  0  0  0  0  0  0  0  0  0  0
   -9.4825   -6.4091    7.6016 N   0  0  0  0  0  0  0  0  0  0  0  0
   -8.8157   -8.0780    8.1515 C   0  0  0  0  0  0  0  0  0  0  0  0
   -7.6604   -8.3509    8.4806 O   0  0  0  0  0  0  0  0  0  0  0  0
  -10.1292   -9.4695    8.0188 C   0  0  0  0  0  0  0  0  0  0  0  0
  -10.6963  -10.8440    8.3803 C   0  0  0  0  0  0  0  0  0  0  0  0
  -11.3109  -11.0568    9.9158 C   0  0  0  0  0  0  0  0  0  0  0  0
  -12.5130  -10.5113   10.4535 C   0  0  0  0  0  0  0  0  0  0  0  0
  -12.8423  -10.9871   11.6606 N   0  0  0  0  0  0  0  0  0  0  0  0
  -11.8763  -11.8774   11.9308 N   0  0  0  0  0  0  0  0  0  0  0  0
  -10.9677  -11.9768   10.9172 C   0  0  0  0  0  0  0  0  0  0  0  0
   -7.4409    0.2938    8.1325 H   0  0  0  0  0  0  0  0  0  0  0  0
   -5.7209    0.1242    7.7617 H   0  0  0  0  0  0  0  0  0  0  0  0
   -6.4401    1.7277    7.8481 H   0  0  0  0  0  0  0  0  0  0  0  0
   -6.1411    1.1076    5.4605 H   0  0  0  0  0  0  0  0  0  0  0  0
   -9.0788    1.1906    6.3302 H   0  0  0  0  0  0  0  0  0  0  0  0
   -7.9919    2.5837    6.2474 H   0  0  0  0  0  0  0  0  0  0  0  0
   -8.4165    1.7323    4.7701 H   0  0  0  0  0  0  0  0  0  0  0  0
   -9.0226   -0.5292    4.5800 H   0  0  0  0  0  0  0  0  0  0  0  0
   -7.5775   -0.2951    3.5602 H   0  0  0  0  0  0  0  0  0  0  0  0
   -8.0900   -1.9085    4.0819 H   0  0  0  0  0  0  0  0  0  0  0  0
   -5.1577   -1.2253    6.1933 H   0  0  0  0  0  0  0  0  0  0  0  0
   -5.4114   -1.1084    4.4479 H   0  0  0  0  0  0  0  0  0  0  0  0
   -6.9801   -2.5268    7.1195 H   0  0  0  0  0  0  0  0  0  0  0  0
   -6.6375   -4.7266    7.9023 H   0  0  0  0  0  0  0  0  0  0  0  0
   -6.9495   -5.3891    6.2689 H   0  0  0  0  0  0  0  0  0  0  0  0
   -8.6657   -4.5456    8.6084 H   0  0  0  0  0  0  0  0  0  0  0  0
   -9.1049   -2.7513    6.8321 H   0  0  0  0  0  0  0  0  0  0  0  0
  -10.5475   -3.6370    7.2025 H   0  0  0  0  0  0  0  0  0  0  0  0
  -10.2688   -4.2214    4.8968 H   0  0  0  0  0  0  0  0  0  0  0  0
   -8.5639   -4.2420    4.9935 H   0  0  0  0  0  0  0  0  0  0  0  0
   -9.9459   -6.7586    5.5283 H   0  0  0  0  0  0  0  0  0  0  0  0
  -10.5765   -5.6968    6.1640 H   0  0  0  0  0  0  0  0  0  0  0  0
  -10.6265   -9.1952    8.9256 H   0  0  0  0  0  0  0  0  0  0  0  0
  -10.5941   -9.2791    7.0364 H   0  0  0  0  0  0  0  0  0  0  0  0
  -11.5920  -10.8519    7.7377 H   0  0  0  0  0  0  0  0  0  0  0  0
  -10.1021  -11.6935    8.0326 H   0  0  0  0  0  0  0  0  0  0  0  0
  -13.1833   -9.8040    9.9839 H   0  0  0  0  0  0  0  0  0  0  0  0
  -11.9309  -12.4260   12.7834 H   0  0  0  0  0  0  0  0  0  0  0  0
  -10.2010  -12.7312   10.9756 H   0  0  0  0  0  0  0  0  0  0  0  0
  1  2  1  0
  2  3  1  0
  2  4  1  0
  4  5  1  0
  4  6  1  0
  6  7  1  0
  7  8  2  0
  7  9  1  0
  9 10  1  0
 10 11  1  0
 11 12  1  0
 12 13  1  0
 13 14  1  0
 14 15  1  0
 15 16  1  0
 16 17  2  0
 16 18  1  0
 18 19  1  0
 19 20  1  0
 20 21  1  0
 21 22  2  0
 22 23  1  0
 23 24  1  0
 15 11  1  0
 24 20  2  0
  1 25  1  0
  1 26  1  0
  1 27  1  0
  2 28  1  0
  3 29  1  0
  3 30  1  0
  3 31  1  0
  5 32  1  0
  5 33  1  0
  5 34  1  0
  6 35  1  0
  6 36  1  0
  9 37  1  0
 10 38  1  0
 10 39  1  0
 11 40  1  0
 12 41  1  0
 12 42  1  0
 13 43  1  0
 13 44  1  0
 14 45  1  0
 14 46  1  0
 18 47  1  0
 18 48  1  0
 19 49  1  0
 19 50  1  0
 21 51  1  0
 23 52  1  0
 24 53  1  0
M  END
>  <Energy>  (767) 
370.81586044305169

>  <compound_id>  (767) 
7369

>  <target_id>  (767) 
1

>  <reference_id>  (767) 
112

>  <inspiration_ids>  (767) 
[95, 112]

>  <energy_score>  (767) 
267.0098683165468

>  <distance_score>  (767) 
9.475835846196212

>  <path>  (767) 
/opt/xchem-fragalysis-2/maxwin/BulkDock/SCRATCH/511021/C7369-P112/C7369-P112.minimised.mol

>  <scratch_subdir>  (767) 
/opt/xchem-fragalysis-2/maxwin/BulkDock/SCRATCH/511021/C7369-P112

>  <fragmenstein_runtime>  (767) 
15.371058464050293

>  <fragmenstein_outcome>  (767) 
too moved

>  <fragmenstein_mode>  (767) 
expansion

>  <fragmenstein_error>  (767) 


$$$$
C7374-P95
     RDKit          3D

 49 50  0  0  0  0  0  0  0  0999 V2000
  -10.5052   -0.6495    3.7803 C   0  0  0  0  0  0  0  0  0  0  0  0
   -9.9403   -1.4959    4.9153 C   0  0  0  0  0  0  0  0  0  0  0  0
  -10.1987   -0.9740    6.3582 C   0  0  0  0  0  0  0  0  0  0  0  0
   -9.3722    0.3258    6.5606 C   0  0  0  0  0  0  0  0  0  0  0  0
  -11.6762   -0.5990    6.5903 C   0  0  0  0  0  0  0  0  0  0  0  0
   -9.7102   -2.0284    7.4186 C   0  0  0  0  0  0  0  0  0  0  0  0
   -9.7921   -1.4405    8.7166 O   0  0  0  0  0  0  0  0  0  0  0  0
  -10.4078   -3.4689    7.3947 C   0  0  0  0  0  0  0  0  0  0  0  0
  -11.5872   -3.6042    7.1970 O   0  0  0  0  0  0  0  0  0  0  0  0
   -9.3337   -4.4835    7.5521 N   0  0  0  0  0  0  0  0  0  0  0  0
   -8.7587   -4.7628    6.2884 C   0  0  0  0  0  0  0  0  0  0  0  0
   -7.4071   -5.1134    6.5903 C   0  0  0  0  0  0  0  0  0  0  0  0
   -7.9052   -5.8590    7.7560 C   0  0  0  0  0  0  0  0  0  0  0  0
   -9.4149   -6.4464    7.6496 C   0  0  0  0  0  0  0  0  0  0  0  0
   -9.3864   -8.4524    8.5972 C   0  0  0  0  0  0  0  0  0  0  0  0
  -10.1423   -9.5910   10.1643 N   0  0  0  0  0  0  0  0  0  0  0  0
  -10.3998  -11.4958   10.2752 C   0  0  0  0  0  0  0  0  0  0  0  0
  -10.2960  -12.3672    9.4063 O   0  0  0  0  0  0  0  0  0  0  0  0
  -10.6057  -12.1759   11.6940 C   0  0  0  0  0  0  0  0  0  0  0  0
   -9.6716  -11.5699   12.7053 C   0  0  0  0  0  0  0  0  0  0  0  0
   -9.1361  -12.3738   13.6078 N   0  0  0  0  0  0  0  0  0  0  0  0
   -9.6658  -13.5317   13.2843 N   0  0  0  0  0  0  0  0  0  0  0  0
  -10.4515  -13.4808   12.1567 C   0  0  0  0  0  0  0  0  0  0  0  0
  -10.1122    0.3701    3.7941 H   0  0  0  0  0  0  0  0  0  0  0  0
  -10.2300   -1.0935    2.8176 H   0  0  0  0  0  0  0  0  0  0  0  0
  -11.5975   -0.6061    3.8182 H   0  0  0  0  0  0  0  0  0  0  0  0
  -10.3446   -2.5042    4.8040 H   0  0  0  0  0  0  0  0  0  0  0  0
   -8.8577   -1.5924    4.7603 H   0  0  0  0  0  0  0  0  0  0  0  0
   -9.6616    1.1073    5.8507 H   0  0  0  0  0  0  0  0  0  0  0  0
   -8.3012    0.1353    6.4282 H   0  0  0  0  0  0  0  0  0  0  0  0
   -9.5143    0.7461    7.5625 H   0  0  0  0  0  0  0  0  0  0  0  0
  -12.3554   -1.4119    6.3282 H   0  0  0  0  0  0  0  0  0  0  0  0
  -11.9682    0.2694    5.9891 H   0  0  0  0  0  0  0  0  0  0  0  0
  -11.8637   -0.3352    7.6370 H   0  0  0  0  0  0  0  0  0  0  0  0
   -8.6368   -2.1793    7.2512 H   0  0  0  0  0  0  0  0  0  0  0  0
  -10.3084   -2.0930    9.2434 H   0  0  0  0  0  0  0  0  0  0  0  0
   -8.6574   -3.8190    5.7333 H   0  0  0  0  0  0  0  0  0  0  0  0
   -9.5511   -5.2043    5.6830 H   0  0  0  0  0  0  0  0  0  0  0  0
   -6.8541   -5.6302    5.8327 H   0  0  0  0  0  0  0  0  0  0  0  0
   -6.8023   -4.2463    6.8866 H   0  0  0  0  0  0  0  0  0  0  0  0
   -7.6257   -6.8966    8.0832 H   0  0  0  0  0  0  0  0  0  0  0  0
   -7.6386   -5.1934    8.6218 H   0  0  0  0  0  0  0  0  0  0  0  0
   -9.8892   -6.6448    6.6737 H   0  0  0  0  0  0  0  0  0  0  0  0
   -8.2856   -8.5214    8.7456 H   0  0  0  0  0  0  0  0  0  0  0  0
   -9.6876   -9.1707    7.7897 H   0  0  0  0  0  0  0  0  0  0  0  0
  -10.2229   -9.1864   11.0674 H   0  0  0  0  0  0  0  0  0  0  0  0
   -9.4064  -10.5202   12.7796 H   0  0  0  0  0  0  0  0  0  0  0  0
   -9.5634  -14.3029   13.9319 H   0  0  0  0  0  0  0  0  0  0  0  0
  -10.8606  -14.4260   11.9551 H   0  0  0  0  0  0  0  0  0  0  0  0
  1  2  1  0
  2  3  1  0
  3  4  1  0
  3  5  1  0
  3  6  1  0
  6  7  1  0
  6  8  1  0
  8  9  2  0
  8 10  1  0
 10 11  1  0
 11 12  1  0
 12 13  1  0
 13 14  1  0
 14 15  1  0
 15 16  1  0
 16 17  1  0
 17 18  2  0
 17 19  1  0
 19 20  1  0
 20 21  2  0
 21 22  1  0
 22 23  1  0
 14 10  1  0
 23 19  2  0
  1 24  1  0
  1 25  1  0
  1 26  1  0
  2 27  1  0
  2 28  1  0
  4 29  1  0
  4 30  1  0
  4 31  1  0
  5 32  1  0
  5 33  1  0
  5 34  1  0
  6 35  1  0
  7 36  1  0
 11 37  1  0
 11 38  1  0
 12 39  1  0
 12 40  1  0
 13 41  1  0
 13 42  1  0
 14 43  1  0
 15 44  1  0
 15 45  1  0
 16 46  1  0
 20 47  1  0
 22 48  1  0
 23 49  1  0
M  END
>  <Energy>  (768) 
704.27413043811544

>  <compound_id>  (768) 
7374

>  <target_id>  (768) 
1

>  <reference_id>  (768) 
95

>  <inspiration_ids>  (768) 
[95, 112]

>  <energy_score>  (768) 
601.0242571240469

>  <distance_score>  (768) 
8.359497290903223

>  <path>  (768) 
/opt/xchem-fragalysis-2/maxwin/BulkDock/SCRATCH/511021/C7374-P95/C7374-P95.minimised.mol

>  <scratch_subdir>  (768) 
/opt/xchem-fragalysis-2/maxwin/BulkDock/SCRATCH/511021/C7374-P95

>  <fragmenstein_runtime>  (768) 
18.907886266708374

>  <fragmenstein_outcome>  (768) 
too moved

>  <fragmenstein_mode>  (768) 
expansion

>  <fragmenstein_error>  (768) 


$$$$
C7374-P112
     RDKit          3D

 49 50  0  0  0  0  0  0  0  0999 V2000
   -9.8820   -1.6093    4.9393 C   0  0  0  0  0  0  0  0  0  0  0  0
   -9.1319   -2.5079    5.9185 C   0  0  0  0  0  0  0  0  0  0  0  0
   -8.7106   -1.8423    7.2682 C   0  0  0  0  0  0  0  0  0  0  0  0
   -7.8636   -0.5690    6.9553 C   0  0  0  0  0  0  0  0  0  0  0  0
   -9.9573   -1.3567    8.0190 C   0  0  0  0  0  0  0  0  0  0  0  0
   -7.7779   -2.8081    8.1585 C   0  0  0  0  0  0  0  0  0  0  0  0
   -6.6725   -3.0655    7.2356 O   0  0  0  0  0  0  0  0  0  0  0  0
   -8.4613   -4.3293    8.6933 C   0  0  0  0  0  0  0  0  0  0  0  0
   -9.5967   -4.4018    8.9783 O   0  0  0  0  0  0  0  0  0  0  0  0
   -7.3097   -5.7446    8.5985 N   0  0  0  0  0  0  0  0  0  0  0  0
   -7.2935   -6.3726    6.7900 C   0  0  0  0  0  0  0  0  0  0  0  0
   -8.2609   -5.8519    7.5693 C   0  0  0  0  0  0  0  0  0  0  0  0
   -7.1103   -6.0137    9.3695 C   0  0  0  0  0  0  0  0  0  0  0  0
   -7.6108   -7.8960    9.1650 C   0  0  0  0  0  0  0  0  0  0  0  0
   -7.9484   -9.6021   10.7557 C   0  0  0  0  0  0  0  0  0  0  0  0
   -7.9511  -12.0395   11.3375 N   0  0  0  0  0  0  0  0  0  0  0  0
   -6.8989  -14.0242   10.7564 C   0  0  0  0  0  0  0  0  0  0  0  0
   -6.1084  -13.8189    9.7522 O   0  0  0  0  0  0  0  0  0  0  0  0
   -6.8231  -16.2184   11.0974 C   0  0  0  0  0  0  0  0  0  0  0  0
   -6.3953  -17.6562   11.6382 C   0  0  0  0  0  0  0  0  0  0  0  0
   -6.2531  -18.2255   12.8227 N   0  0  0  0  0  0  0  0  0  0  0  0
   -7.3433  -18.7371   12.4856 N   0  0  0  0  0  0  0  0  0  0  0  0
   -8.1402  -17.2748   12.2771 C   0  0  0  0  0  0  0  0  0  0  0  0
   -9.2609   -0.7781    4.5946 H   0  0  0  0  0  0  0  0  0  0  0  0
  -10.1650   -2.1862    4.0529 H   0  0  0  0  0  0  0  0  0  0  0  0
  -10.7973   -1.2042    5.3797 H   0  0  0  0  0  0  0  0  0  0  0  0
   -8.2509   -2.8969    5.3948 H   0  0  0  0  0  0  0  0  0  0  0  0
   -9.7715   -3.3718    6.1340 H   0  0  0  0  0  0  0  0  0  0  0  0
   -8.4569    0.2095    6.4635 H   0  0  0  0  0  0  0  0  0  0  0  0
   -7.0174   -0.7943    6.2974 H   0  0  0  0  0  0  0  0  0  0  0  0
   -7.4663   -0.1262    7.8763 H   0  0  0  0  0  0  0  0  0  0  0  0
  -10.3009   -0.3827    7.6503 H   0  0  0  0  0  0  0  0  0  0  0  0
   -9.7744   -1.2412    9.0897 H   0  0  0  0  0  0  0  0  0  0  0  0
  -10.7956   -2.0367    7.8621 H   0  0  0  0  0  0  0  0  0  0  0  0
   -7.3942   -2.1484    8.9198 H   0  0  0  0  0  0  0  0  0  0  0  0
   -6.3077   -3.9325    7.4774 H   0  0  0  0  0  0  0  0  0  0  0  0
   -6.8100   -5.5506    6.2269 H   0  0  0  0  0  0  0  0  0  0  0  0
   -6.7024   -7.2880    6.6605 H   0  0  0  0  0  0  0  0  0  0  0  0
   -8.4144   -4.9330    6.9260 H   0  0  0  0  0  0  0  0  0  0  0  0
   -9.2684   -6.3020    7.5010 H   0  0  0  0  0  0  0  0  0  0  0  0
   -7.4373   -5.1338   10.2082 H   0  0  0  0  0  0  0  0  0  0  0  0
   -6.1772   -6.4405    9.9104 H   0  0  0  0  0  0  0  0  0  0  0  0
   -6.7663   -8.3261    8.6148 H   0  0  0  0  0  0  0  0  0  0  0  0
   -8.6938   -9.1679   11.4829 H   0  0  0  0  0  0  0  0  0  0  0  0
   -6.8425   -8.8040   10.6300 H   0  0  0  0  0  0  0  0  0  0  0  0
   -8.6332  -12.2446   12.0756 H   0  0  0  0  0  0  0  0  0  0  0  0
   -6.5355  -18.4248   10.8204 H   0  0  0  0  0  0  0  0  0  0  0  0
   -7.5891  -19.6717   12.1147 H   0  0  0  0  0  0  0  0  0  0  0  0
   -9.0708  -17.0794   12.8397 H   0  0  0  0  0  0  0  0  0  0  0  0
  1  2  1  0
  2  3  1  0
  3  4  1  0
  3  5  1  0
  3  6  1  0
  6  7  1  0
  6  8  1  0
  8  9  2  0
  8 10  1  0
 10 11  1  0
 11 12  1  0
 12 13  1  0
 13 14  1  0
 14 15  1  0
 15 16  1  0
 16 17  1  0
 17 18  2  0
 17 19  1  0
 19 20  1  0
 20 21  2  0
 21 22  1  0
 22 23  1  0
 14 10  1  0
 23 19  2  0
  1 24  1  0
  1 25  1  0
  1 26  1  0
  2 27  1  0
  2 28  1  0
  4 29  1  0
  4 30  1  0
  4 31  1  0
  5 32  1  0
  5 33  1  0
  5 34  1  0
  6 35  1  0
  7 36  1  0
 11 37  1  0
 11 38  1  0
 12 39  1  0
 12 40  1  0
 13 41  1  0
 13 42  1  0
 14 43  1  0
 15 44  1  0
 15 45  1  0
 16 46  1  0
 20 47  1  0
 22 48  1  0
 23 49  1  0
M  END
>  <Energy>  (769) 
3226.2682638208266

>  <compound_id>  (769) 
7374

>  <target_id>  (769) 
1

>  <reference_id>  (769) 
112

>  <inspiration_ids>  (769) 
[95, 112]

>  <energy_score>  (769) 
3123.018390506756

>  <distance_score>  (769) 
6.906843911415012

>  <path>  (769) 
/opt/xchem-fragalysis-2/maxwin/BulkDock/SCRATCH/511021/C7374-P112/C7374-P112.minimised.mol

>  <scratch_subdir>  (769) 
/opt/xchem-fragalysis-2/maxwin/BulkDock/SCRATCH/511021/C7374-P112

>  <fragmenstein_runtime>  (769) 
17.22656536102295

>  <fragmenstein_outcome>  (769) 
too moved

>  <fragmenstein_mode>  (769) 
expansion

>  <fragmenstein_error>  (769) 


$$$$
C7375-P95
     RDKit          3D

 47 48  0  0  0  0  0  0  0  0999 V2000
   -8.8580  -13.8372    6.6435 C   0  0  0  0  0  0  0  0  0  0  0  0
  -10.0620  -14.1067    7.2706 N   0  0  0  0  0  0  0  0  0  0  0  0
  -10.0175  -12.3655    6.2682 C   0  0  0  0  0  0  0  0  0  0  0  0
   -9.6828  -10.3397    6.1577 C   0  0  0  0  0  0  0  0  0  0  0  0
  -10.1962   -8.4695    5.5043 N   0  0  0  0  0  0  0  0  0  0  0  0
   -9.9751   -6.8178    6.2585 C   0  0  0  0  0  0  0  0  0  0  0  0
   -9.5401   -6.5020    7.3727 O   0  0  0  0  0  0  0  0  0  0  0  0
  -10.3247   -5.4305    5.3728 C   0  0  0  0  0  0  0  0  0  0  0  0
   -9.2909   -4.2903    5.3875 N   0  0  0  0  0  0  0  0  0  0  0  0
   -8.5501   -4.0850    6.6370 C   0  0  0  0  0  0  0  0  0  0  0  0
   -7.8037   -2.7735    6.4148 C   0  0  0  0  0  0  0  0  0  0  0  0
   -8.5051   -2.1177    5.2363 C   0  0  0  0  0  0  0  0  0  0  0  0
   -9.7568   -2.9551    5.0370 C   0  0  0  0  0  0  0  0  0  0  0  0
  -11.1342  -15.8204    6.9630 C   0  0  0  0  0  0  0  0  0  0  0  0
  -11.9839  -15.8178    6.0576 O   0  0  0  0  0  0  0  0  0  0  0  0
  -10.9365  -17.8886    7.8237 C   0  0  0  0  0  0  0  0  0  0  0  0
  -10.1497  -19.4970    8.7504 C   0  0  0  0  0  0  0  0  0  0  0  0
   -8.9676  -20.1089   10.2060 C   0  0  0  0  0  0  0  0  0  0  0  0
   -9.2520  -21.1531   11.3939 C   0  0  0  0  0  0  0  0  0  0  0  0
   -8.2261  -21.4850   12.1764 N   0  0  0  0  0  0  0  0  0  0  0  0
   -7.2679  -20.6839   11.7205 N   0  0  0  0  0  0  0  0  0  0  0  0
   -7.6337  -19.9485   10.6289 C   0  0  0  0  0  0  0  0  0  0  0  0
   -8.8234  -13.6972    5.5314 H   0  0  0  0  0  0  0  0  0  0  0  0
   -7.9631  -13.2956    6.4315 H   0  0  0  0  0  0  0  0  0  0  0  0
   -7.7835  -14.5416    7.1762 H   0  0  0  0  0  0  0  0  0  0  0  0
   -9.2209  -12.0797    7.1840 H   0  0  0  0  0  0  0  0  0  0  0  0
   -9.7445  -12.4708    5.1692 H   0  0  0  0  0  0  0  0  0  0  0  0
   -9.5710  -10.9221    5.2217 H   0  0  0  0  0  0  0  0  0  0  0  0
   -9.7924  -10.0403    5.0787 H   0  0  0  0  0  0  0  0  0  0  0  0
  -10.4918   -8.3797    4.5490 H   0  0  0  0  0  0  0  0  0  0  0  0
  -10.7530   -5.7736    4.4498 H   0  0  0  0  0  0  0  0  0  0  0  0
  -11.0709   -4.8961    5.9256 H   0  0  0  0  0  0  0  0  0  0  0  0
   -7.8292   -4.8789    6.8424 H   0  0  0  0  0  0  0  0  0  0  0  0
   -9.2172   -3.9636    7.4954 H   0  0  0  0  0  0  0  0  0  0  0  0
   -6.7477   -2.9472    6.1789 H   0  0  0  0  0  0  0  0  0  0  0  0
   -7.8506   -2.1427    7.3090 H   0  0  0  0  0  0  0  0  0  0  0  0
   -8.7368   -1.0655    5.4275 H   0  0  0  0  0  0  0  0  0  0  0  0
   -7.8642   -2.1668    4.3474 H   0  0  0  0  0  0  0  0  0  0  0  0
  -10.1074   -2.8794    4.0074 H   0  0  0  0  0  0  0  0  0  0  0  0
  -10.5246   -2.5916    5.7277 H   0  0  0  0  0  0  0  0  0  0  0  0
  -10.5194  -18.7945    6.9902 H   0  0  0  0  0  0  0  0  0  0  0  0
   -9.7447  -17.8524    8.0647 H   0  0  0  0  0  0  0  0  0  0  0  0
   -9.3852  -19.7239    7.9984 H   0  0  0  0  0  0  0  0  0  0  0  0
  -10.8801  -20.3063    8.5944 H   0  0  0  0  0  0  0  0  0  0  0  0
  -10.1382  -21.7551   11.5613 H   0  0  0  0  0  0  0  0  0  0  0  0
   -6.3558  -20.7027   12.1664 H   0  0  0  0  0  0  0  0  0  0  0  0
   -6.8424  -19.3288   10.2674 H   0  0  0  0  0  0  0  0  0  0  0  0
  1  2  1  0
  2  3  1  0
  3  4  1  0
  4  5  1  0
  5  6  1  0
  6  7  2  0
  6  8  1  0
  8  9  1  0
  9 10  1  0
 10 11  1  0
 11 12  1  0
 12 13  1  0
  2 14  1  0
 14 15  2  0
 14 16  1  0
 16 17  1  0
 17 18  1  0
 18 19  1  0
 19 20  2  0
 20 21  1  0
 21 22  1  0
 13  9  1  0
 22 18  2  0
  1 23  1  0
  1 24  1  0
  1 25  1  0
  3 26  1  0
  3 27  1  0
  4 28  1  0
  4 29  1  0
  5 30  1  0
  8 31  1  0
  8 32  1  0
 10 33  1  0
 10 34  1  0
 11 35  1  0
 11 36  1  0
 12 37  1  0
 12 38  1  0
 13 39  1  0
 13 40  1  0
 16 41  1  0
 16 42  1  0
 17 43  1  0
 17 44  1  0
 19 45  1  0
 21 46  1  0
 22 47  1  0
M  END
>  <Energy>  (770) 
1424.6337118853153

>  <compound_id>  (770) 
7375

>  <target_id>  (770) 
1

>  <reference_id>  (770) 
95

>  <inspiration_ids>  (770) 
[95, 112]

>  <energy_score>  (770) 
1359.7873875212604

>  <distance_score>  (770) 
5.939477565419698

>  <path>  (770) 
/opt/xchem-fragalysis-2/maxwin/BulkDock/SCRATCH/511021/C7375-P95/C7375-P95.minimised.mol

>  <scratch_subdir>  (770) 
/opt/xchem-fragalysis-2/maxwin/BulkDock/SCRATCH/511021/C7375-P95

>  <fragmenstein_runtime>  (770) 
11.664057731628418

>  <fragmenstein_outcome>  (770) 
too moved

>  <fragmenstein_mode>  (770) 
expansion

>  <fragmenstein_error>  (770) 


$$$$
C7375-P112
     RDKit          3D

 47 48  0  0  0  0  0  0  0  0999 V2000
   -9.5106  -13.3849    7.8174 C   0  0  0  0  0  0  0  0  0  0  0  0
  -10.8300  -13.4463    7.2598 N   0  0  0  0  0  0  0  0  0  0  0  0
   -9.9514  -12.2518    6.0731 C   0  0  0  0  0  0  0  0  0  0  0  0
   -9.8204  -10.2774    5.4545 C   0  0  0  0  0  0  0  0  0  0  0  0
  -10.2603   -8.4236    5.6857 N   0  0  0  0  0  0  0  0  0  0  0  0
  -10.2764   -7.2951    4.7198 C   0  0  0  0  0  0  0  0  0  0  0  0
  -10.1034   -7.2910    3.5352 O   0  0  0  0  0  0  0  0  0  0  0  0
  -10.4202   -5.6598    5.3022 C   0  0  0  0  0  0  0  0  0  0  0  0
   -9.6174   -4.9465    6.3907 N   0  0  0  0  0  0  0  0  0  0  0  0
  -10.1230   -3.5213    6.4650 C   0  0  0  0  0  0  0  0  0  0  0  0
   -9.0737   -2.7055    7.1988 C   0  0  0  0  0  0  0  0  0  0  0  0
   -7.9130   -3.6539    7.2780 C   0  0  0  0  0  0  0  0  0  0  0  0
   -8.1847   -4.6619    6.1907 C   0  0  0  0  0  0  0  0  0  0  0  0
  -11.5817  -15.3269    6.9523 C   0  0  0  0  0  0  0  0  0  0  0  0
  -11.4788  -16.0015    5.9136 O   0  0  0  0  0  0  0  0  0  0  0  0
  -12.4780  -16.4941    8.4898 C   0  0  0  0  0  0  0  0  0  0  0  0
  -13.5676  -17.8023    9.6912 C   0  0  0  0  0  0  0  0  0  0  0  0
  -15.4424  -18.4213   10.2356 C   0  0  0  0  0  0  0  0  0  0  0  0
  -17.0237  -18.6088    9.5134 C   0  0  0  0  0  0  0  0  0  0  0  0
  -18.1097  -18.8523   10.2559 N   0  0  0  0  0  0  0  0  0  0  0  0
  -17.4682  -19.0211   11.3821 N   0  0  0  0  0  0  0  0  0  0  0  0
  -16.2089  -19.4648   10.9520 C   0  0  0  0  0  0  0  0  0  0  0  0
   -9.0183  -12.4063    7.7336 H   0  0  0  0  0  0  0  0  0  0  0  0
   -9.3688  -13.8752    8.7995 H   0  0  0  0  0  0  0  0  0  0  0  0
   -9.9198  -12.8590    8.7329 H   0  0  0  0  0  0  0  0  0  0  0  0
  -10.9698  -12.4421    6.4159 H   0  0  0  0  0  0  0  0  0  0  0  0
   -9.6687  -12.6660    5.0981 H   0  0  0  0  0  0  0  0  0  0  0  0
   -9.6106  -10.9017    4.5018 H   0  0  0  0  0  0  0  0  0  0  0  0
   -9.7805   -9.7886    4.4710 H   0  0  0  0  0  0  0  0  0  0  0  0
  -10.3574   -8.0746    6.5755 H   0  0  0  0  0  0  0  0  0  0  0  0
  -11.4279   -5.4055    5.2914 H   0  0  0  0  0  0  0  0  0  0  0  0
  -10.0712   -5.0279    4.5042 H   0  0  0  0  0  0  0  0  0  0  0  0
  -11.0933   -3.4415    6.9587 H   0  0  0  0  0  0  0  0  0  0  0  0
  -10.1997   -3.0861    5.4603 H   0  0  0  0  0  0  0  0  0  0  0  0
   -9.3917   -2.3835    8.1926 H   0  0  0  0  0  0  0  0  0  0  0  0
   -8.8121   -1.8099    6.6242 H   0  0  0  0  0  0  0  0  0  0  0  0
   -6.9479   -3.1544    7.1618 H   0  0  0  0  0  0  0  0  0  0  0  0
   -7.9524   -4.1811    8.2342 H   0  0  0  0  0  0  0  0  0  0  0  0
   -7.5275   -5.5095    6.3602 H   0  0  0  0  0  0  0  0  0  0  0  0
   -7.9682   -4.2018    5.2168 H   0  0  0  0  0  0  0  0  0  0  0  0
  -11.8262  -17.2921    8.3085 H   0  0  0  0  0  0  0  0  0  0  0  0
  -12.6990  -16.0220    9.3787 H   0  0  0  0  0  0  0  0  0  0  0  0
  -13.1061  -17.4692   10.5899 H   0  0  0  0  0  0  0  0  0  0  0  0
  -12.9805  -18.7255    9.7030 H   0  0  0  0  0  0  0  0  0  0  0  0
  -17.2525  -18.7655    8.4558 H   0  0  0  0  0  0  0  0  0  0  0  0
  -17.9969  -19.2943   12.2032 H   0  0  0  0  0  0  0  0  0  0  0  0
  -16.1028  -20.4265   11.4013 H   0  0  0  0  0  0  0  0  0  0  0  0
  1  2  1  0
  2  3  1  0
  3  4  1  0
  4  5  1  0
  5  6  1  0
  6  7  2  0
  6  8  1  0
  8  9  1  0
  9 10  1  0
 10 11  1  0
 11 12  1  0
 12 13  1  0
  2 14  1  0
 14 15  2  0
 14 16  1  0
 16 17  1  0
 17 18  1  0
 18 19  1  0
 19 20  2  0
 20 21  1  0
 21 22  1  0
 13  9  1  0
 22 18  2  0
  1 23  1  0
  1 24  1  0
  1 25  1  0
  3 26  1  0
  3 27  1  0
  4 28  1  0
  4 29  1  0
  5 30  1  0
  8 31  1  0
  8 32  1  0
 10 33  1  0
 10 34  1  0
 11 35  1  0
 11 36  1  0
 12 37  1  0
 12 38  1  0
 13 39  1  0
 13 40  1  0
 16 41  1  0
 16 42  1  0
 17 43  1  0
 17 44  1  0
 19 45  1  0
 21 46  1  0
 22 47  1  0
M  END
>  <Energy>  (771) 
1254.9597519344895

>  <compound_id>  (771) 
7375

>  <target_id>  (771) 
1

>  <reference_id>  (771) 
112

>  <inspiration_ids>  (771) 
[95, 112]

>  <energy_score>  (771) 
1190.113427570423

>  <distance_score>  (771) 
7.040829588655783

>  <path>  (771) 
/opt/xchem-fragalysis-2/maxwin/BulkDock/SCRATCH/511021/C7375-P112/C7375-P112.minimised.mol

>  <scratch_subdir>  (771) 
/opt/xchem-fragalysis-2/maxwin/BulkDock/SCRATCH/511021/C7375-P112

>  <fragmenstein_runtime>  (771) 
11.713443040847778

>  <fragmenstein_outcome>  (771) 
too moved

>  <fragmenstein_mode>  (771) 
expansion

>  <fragmenstein_error>  (771) 


$$$$
C7377-P95
     RDKit          3D

 54 55  0  0  0  0  0  0  0  0999 V2000
   -7.2584   -0.3499    6.7615 C   0  0  0  0  0  0  0  0  0  0  0  0
   -6.6884   -1.2111    7.8841 C   0  0  0  0  0  0  0  0  0  0  0  0
   -5.4802   -2.0096    7.6563 N   0  0  0  0  0  0  0  0  0  0  0  0
   -4.4664   -1.3093    6.8928 C   0  0  0  0  0  0  0  0  0  0  0  0
   -4.7150   -1.7029    5.4478 C   0  0  0  0  0  0  0  0  0  0  0  0
   -5.5755   -2.9568    5.5393 C   0  0  0  0  0  0  0  0  0  0  0  0
   -5.5404   -3.3568    7.0357 C   0  0  0  0  0  0  0  0  0  0  0  0
   -6.7247   -4.4230    7.3664 C   0  0  0  0  0  0  0  0  0  0  0  0
   -7.1628   -5.4488    8.7941 N   0  0  0  0  0  0  0  0  0  0  0  0
   -8.6749   -4.7156    8.3779 C   0  0  0  0  0  0  0  0  0  0  0  0
   -9.2251   -4.4981    6.8157 C   0  0  0  0  0  0  0  0  0  0  0  0
   -9.2807   -3.0861    6.3366 N   0  0  0  0  0  0  0  0  0  0  0  0
  -10.3305   -2.3138    6.9930 C   0  0  0  0  0  0  0  0  0  0  0  0
   -9.4105   -3.0191    4.8877 C   0  0  0  0  0  0  0  0  0  0  0  0
   -7.1681   -7.3256    8.9925 C   0  0  0  0  0  0  0  0  0  0  0  0
   -6.9441   -8.1336    8.0850 O   0  0  0  0  0  0  0  0  0  0  0  0
   -7.3393   -8.1576   10.4581 C   0  0  0  0  0  0  0  0  0  0  0  0
   -8.6540   -9.0318   11.6710 C   0  0  0  0  0  0  0  0  0  0  0  0
   -9.0137  -10.2299   12.9382 C   0  0  0  0  0  0  0  0  0  0  0  0
   -9.0003  -10.0165   14.3514 C   0  0  0  0  0  0  0  0  0  0  0  0
   -9.1935  -11.1340   15.0566 N   0  0  0  0  0  0  0  0  0  0  0  0
   -9.2502  -12.0933   14.1149 N   0  0  0  0  0  0  0  0  0  0  0  0
   -9.2719  -11.6101   12.8500 C   0  0  0  0  0  0  0  0  0  0  0  0
   -6.5645    0.4367    6.4512 H   0  0  0  0  0  0  0  0  0  0  0  0
   -7.5419   -0.9291    5.8838 H   0  0  0  0  0  0  0  0  0  0  0  0
   -8.1622    0.1565    7.1187 H   0  0  0  0  0  0  0  0  0  0  0  0
   -6.4369   -0.5140    8.6953 H   0  0  0  0  0  0  0  0  0  0  0  0
   -7.4897   -1.8136    8.3085 H   0  0  0  0  0  0  0  0  0  0  0  0
   -4.5323   -0.2489    7.0880 H   0  0  0  0  0  0  0  0  0  0  0  0
   -3.4675   -1.6348    7.2094 H   0  0  0  0  0  0  0  0  0  0  0  0
   -3.7744   -1.8963    4.9259 H   0  0  0  0  0  0  0  0  0  0  0  0
   -5.2358   -0.9182    4.8898 H   0  0  0  0  0  0  0  0  0  0  0  0
   -5.2006   -3.7254    4.8632 H   0  0  0  0  0  0  0  0  0  0  0  0
   -6.5897   -2.7311    5.2084 H   0  0  0  0  0  0  0  0  0  0  0  0
   -4.5506   -3.7914    7.2036 H   0  0  0  0  0  0  0  0  0  0  0  0
   -7.4100   -3.6121    7.3029 H   0  0  0  0  0  0  0  0  0  0  0  0
   -6.7685   -5.0953    6.5048 H   0  0  0  0  0  0  0  0  0  0  0  0
   -9.4347   -4.8831    9.1200 H   0  0  0  0  0  0  0  0  0  0  0  0
   -8.5005   -3.6844    8.7101 H   0  0  0  0  0  0  0  0  0  0  0  0
   -8.5487   -5.0349    6.1848 H   0  0  0  0  0  0  0  0  0  0  0  0
  -10.1485   -4.9798    6.5186 H   0  0  0  0  0  0  0  0  0  0  0  0
  -10.0217   -2.0607    8.0100 H   0  0  0  0  0  0  0  0  0  0  0  0
  -10.4877   -1.3500    6.4946 H   0  0  0  0  0  0  0  0  0  0  0  0
  -11.2879   -2.8381    7.0254 H   0  0  0  0  0  0  0  0  0  0  0  0
   -8.5290   -3.4458    4.4003 H   0  0  0  0  0  0  0  0  0  0  0  0
   -9.4791   -1.9830    4.5381 H   0  0  0  0  0  0  0  0  0  0  0  0
  -10.2744   -3.5651    4.5252 H   0  0  0  0  0  0  0  0  0  0  0  0
   -7.9034   -8.7196    9.7582 H   0  0  0  0  0  0  0  0  0  0  0  0
   -6.2535   -8.2935   10.6418 H   0  0  0  0  0  0  0  0  0  0  0  0
   -8.2049   -8.6274   12.5876 H   0  0  0  0  0  0  0  0  0  0  0  0
   -9.6115   -9.0887   11.1975 H   0  0  0  0  0  0  0  0  0  0  0  0
   -8.8419   -9.0898   14.8864 H   0  0  0  0  0  0  0  0  0  0  0  0
   -9.3662  -13.0617   14.3885 H   0  0  0  0  0  0  0  0  0  0  0  0
   -9.4000  -12.3077   12.0342 H   0  0  0  0  0  0  0  0  0  0  0  0
  1  2  1  0
  2  3  1  0
  3  4  1  0
  4  5  1  0
  5  6  1  0
  6  7  1  0
  7  8  1  0
  8  9  1  0
  9 10  1  0
 10 11  1  0
 11 12  1  0
 12 13  1  0
 12 14  1  0
  9 15  1  0
 15 16  2  0
 15 17  1  0
 17 18  1  0
 18 19  1  0
 19 20  1  0
 20 21  2  0
 21 22  1  0
 22 23  1  0
  7  3  1  0
 23 19  2  0
  1 24  1  0
  1 25  1  0
  1 26  1  0
  2 27  1  0
  2 28  1  0
  4 29  1  0
  4 30  1  0
  5 31  1  0
  5 32  1  0
  6 33  1  0
  6 34  1  0
  7 35  1  0
  8 36  1  0
  8 37  1  0
 10 38  1  0
 10 39  1  0
 11 40  1  0
 11 41  1  0
 13 42  1  0
 13 43  1  0
 13 44  1  0
 14 45  1  0
 14 46  1  0
 14 47  1  0
 17 48  1  0
 17 49  1  0
 18 50  1  0
 18 51  1  0
 20 52  1  0
 22 53  1  0
 23 54  1  0
M  END
>  <Energy>  (772) 
534.6942477985624

>  <compound_id>  (772) 
7377

>  <target_id>  (772) 
1

>  <reference_id>  (772) 
95

>  <inspiration_ids>  (772) 
[95, 112]

>  <energy_score>  (772) 
450.29225893762475

>  <distance_score>  (772) 
8.928344876382864

>  <path>  (772) 
/opt/xchem-fragalysis-2/maxwin/BulkDock/SCRATCH/511021/C7377-P95/C7377-P95.minimised.mol

>  <scratch_subdir>  (772) 
/opt/xchem-fragalysis-2/maxwin/BulkDock/SCRATCH/511021/C7377-P95

>  <fragmenstein_runtime>  (772) 
23.852628469467163

>  <fragmenstein_outcome>  (772) 
too moved

>  <fragmenstein_mode>  (772) 
expansion

>  <fragmenstein_error>  (772) 


$$$$
C7377-P112
     RDKit          3D

 54 55  0  0  0  0  0  0  0  0999 V2000
   -6.8699   -2.8641    4.1917 C   0  0  0  0  0  0  0  0  0  0  0  0
   -7.6537   -4.2067    4.2742 C   0  0  0  0  0  0  0  0  0  0  0  0
   -8.8647   -4.3051    5.1754 N   0  0  0  0  0  0  0  0  0  0  0  0
   -9.6911   -3.1872    4.6867 C   0  0  0  0  0  0  0  0  0  0  0  0
  -10.3602   -2.7669    5.9083 C   0  0  0  0  0  0  0  0  0  0  0  0
  -10.6715   -4.1329    6.5352 C   0  0  0  0  0  0  0  0  0  0  0  0
   -9.9500   -5.6201    5.8519 C   0  0  0  0  0  0  0  0  0  0  0  0
   -9.8751   -7.6266    6.4348 C   0  0  0  0  0  0  0  0  0  0  0  0
   -9.8933   -8.9827    7.9629 N   0  0  0  0  0  0  0  0  0  0  0  0
   -8.2992   -8.0154    8.4041 C   0  0  0  0  0  0  0  0  0  0  0  0
   -8.0676   -6.0774    7.6161 C   0  0  0  0  0  0  0  0  0  0  0  0
   -7.4198   -4.7929    8.0947 N   0  0  0  0  0  0  0  0  0  0  0  0
   -6.5516   -4.1099    7.0749 C   0  0  0  0  0  0  0  0  0  0  0  0
   -8.3882   -3.7424    8.3448 C   0  0  0  0  0  0  0  0  0  0  0  0
   -9.6808  -10.4415    8.0088 C   0  0  0  0  0  0  0  0  0  0  0  0
   -9.3205  -11.1372    7.0970 O   0  0  0  0  0  0  0  0  0  0  0  0
  -10.3052  -11.6530    9.6672 C   0  0  0  0  0  0  0  0  0  0  0  0
  -10.0167  -12.4808   11.3139 C   0  0  0  0  0  0  0  0  0  0  0  0
  -10.7806  -13.6127   12.1281 C   0  0  0  0  0  0  0  0  0  0  0  0
  -10.2047  -14.6023   12.8523 C   0  0  0  0  0  0  0  0  0  0  0  0
  -10.7903  -15.3288   13.7551 N   0  0  0  0  0  0  0  0  0  0  0  0
  -11.9783  -14.8494   13.6454 N   0  0  0  0  0  0  0  0  0  0  0  0
  -12.0001  -14.2632   12.4403 C   0  0  0  0  0  0  0  0  0  0  0  0
   -7.0776   -2.3653    3.2376 H   0  0  0  0  0  0  0  0  0  0  0  0
   -7.1138   -2.1505    4.9820 H   0  0  0  0  0  0  0  0  0  0  0  0
   -5.7916   -3.0546    4.2294 H   0  0  0  0  0  0  0  0  0  0  0  0
   -7.9675   -4.3550    3.2297 H   0  0  0  0  0  0  0  0  0  0  0  0
   -6.8799   -4.9435    4.4947 H   0  0  0  0  0  0  0  0  0  0  0  0
   -9.1691   -2.3146    4.2856 H   0  0  0  0  0  0  0  0  0  0  0  0
  -10.3479   -3.5061    3.8954 H   0  0  0  0  0  0  0  0  0  0  0  0
   -9.7137   -2.1239    6.5158 H   0  0  0  0  0  0  0  0  0  0  0  0
  -11.2237   -2.1123    5.7517 H   0  0  0  0  0  0  0  0  0  0  0  0
  -11.7279   -4.1501    6.7092 H   0  0  0  0  0  0  0  0  0  0  0  0
  -10.3575   -3.8910    7.5207 H   0  0  0  0  0  0  0  0  0  0  0  0
  -10.5545   -5.7759    4.9481 H   0  0  0  0  0  0  0  0  0  0  0  0
  -10.0514   -8.1237    5.4399 H   0  0  0  0  0  0  0  0  0  0  0  0
  -10.8134   -8.0369    6.3833 H   0  0  0  0  0  0  0  0  0  0  0  0
   -7.9718   -8.2651    9.4224 H   0  0  0  0  0  0  0  0  0  0  0  0
   -7.3694   -8.4927    8.0512 H   0  0  0  0  0  0  0  0  0  0  0  0
   -9.0936   -5.7873    7.5923 H   0  0  0  0  0  0  0  0  0  0  0  0
   -7.6452   -6.0713    6.6051 H   0  0  0  0  0  0  0  0  0  0  0  0
   -5.6284   -3.6956    7.4819 H   0  0  0  0  0  0  0  0  0  0  0  0
   -6.9960   -3.2229    6.6348 H   0  0  0  0  0  0  0  0  0  0  0  0
   -6.2473   -4.7705    6.2861 H   0  0  0  0  0  0  0  0  0  0  0  0
   -8.7136   -3.3695    7.4096 H   0  0  0  0  0  0  0  0  0  0  0  0
   -8.0053   -2.7955    8.7278 H   0  0  0  0  0  0  0  0  0  0  0  0
   -9.1804   -4.1195    8.9709 H   0  0  0  0  0  0  0  0  0  0  0  0
  -10.2208  -12.6444    9.1766 H   0  0  0  0  0  0  0  0  0  0  0  0
  -11.3078  -11.4470    9.8484 H   0  0  0  0  0  0  0  0  0  0  0  0
   -8.9487  -12.7162   11.3593 H   0  0  0  0  0  0  0  0  0  0  0  0
  -10.0704  -11.6958   12.0860 H   0  0  0  0  0  0  0  0  0  0  0  0
   -9.7884  -15.3348   12.2802 H   0  0  0  0  0  0  0  0  0  0  0  0
  -12.6910  -15.1037   14.3231 H   0  0  0  0  0  0  0  0  0  0  0  0
  -12.9356  -14.3061   11.9080 H   0  0  0  0  0  0  0  0  0  0  0  0
  1  2  1  0
  2  3  1  0
  3  4  1  0
  4  5  1  0
  5  6  1  0
  6  7  1  0
  7  8  1  0
  8  9  1  0
  9 10  1  0
 10 11  1  0
 11 12  1  0
 12 13  1  0
 12 14  1  0
  9 15  1  0
 15 16  2  0
 15 17  1  0
 17 18  1  0
 18 19  1  0
 19 20  1  0
 20 21  2  0
 21 22  1  0
 22 23  1  0
  7  3  1  0
 23 19  2  0
  1 24  1  0
  1 25  1  0
  1 26  1  0
  2 27  1  0
  2 28  1  0
  4 29  1  0
  4 30  1  0
  5 31  1  0
  5 32  1  0
  6 33  1  0
  6 34  1  0
  7 35  1  0
  8 36  1  0
  8 37  1  0
 10 38  1  0
 10 39  1  0
 11 40  1  0
 11 41  1  0
 13 42  1  0
 13 43  1  0
 13 44  1  0
 14 45  1  0
 14 46  1  0
 14 47  1  0
 17 48  1  0
 17 49  1  0
 18 50  1  0
 18 51  1  0
 20 52  1  0
 22 53  1  0
 23 54  1  0
M  END
>  <Energy>  (773) 
951.64417697239571

>  <compound_id>  (773) 
7377

>  <target_id>  (773) 
1

>  <reference_id>  (773) 
112

>  <inspiration_ids>  (773) 
[95, 112]

>  <energy_score>  (773) 
867.2421881114462

>  <distance_score>  (773) 
7.870157782541562

>  <path>  (773) 
/opt/xchem-fragalysis-2/maxwin/BulkDock/SCRATCH/511021/C7377-P112/C7377-P112.minimised.mol

>  <scratch_subdir>  (773) 
/opt/xchem-fragalysis-2/maxwin/BulkDock/SCRATCH/511021/C7377-P112

>  <fragmenstein_runtime>  (773) 
19.70783281326294

>  <fragmenstein_outcome>  (773) 
too moved

>  <fragmenstein_mode>  (773) 
expansion

>  <fragmenstein_error>  (773) 


$$$$
C12659-P116
     RDKit          3D

 36 37  0  0  0  0  0  0  0  0999 V2000
    5.2790   -7.6606   18.8097 C   0  0  0  0  0  0  0  0  0  0  0  0
    6.2948   -7.3609   20.5270 C   0  0  0  0  0  0  0  0  0  0  0  0
    6.3279   -5.9469   18.7123 C   0  0  0  0  0  0  0  0  0  0  0  0
    7.2965   -5.7096   16.8387 N   0  0  0  0  0  0  0  0  0  0  0  0
    8.0393   -4.0735   15.8312 C   0  0  0  0  0  0  0  0  0  0  0  0
    7.8748   -2.8910   16.1679 O   0  0  0  0  0  0  0  0  0  0  0  0
    8.9989   -4.0795   14.7159 C   0  0  0  0  0  0  0  0  0  0  0  0
    9.2776   -2.4491   14.5003 C   0  0  0  0  0  0  0  0  0  0  0  0
   10.5079   -1.9679   14.6880 N   0  0  0  0  0  0  0  0  0  0  0  0
   11.2344   -3.0515   14.7493 N   0  0  0  0  0  0  0  0  0  0  0  0
   10.5162   -4.2080   14.7463 C   0  0  0  0  0  0  0  0  0  0  0  0
    4.9124   -8.4102   21.8751 N   0  0  0  0  0  0  0  0  0  0  0  0
    4.8242  -10.5176   22.2494 C   0  0  0  0  0  0  0  0  0  0  0  0
    5.7166  -11.0942   21.7525 O   0  0  0  0  0  0  0  0  0  0  0  0
    3.4832  -11.9243   22.9657 C   0  0  0  0  0  0  0  0  0  0  0  0
    2.6865  -12.6846   24.2470 C   0  0  0  0  0  0  0  0  0  0  0  0
    3.1068  -13.5079   25.2476 N   0  0  0  0  0  0  0  0  0  0  0  0
    2.0233  -13.4763   26.3169 C   0  0  0  0  0  0  0  0  0  0  0  0
    1.0014  -12.6908   25.8845 C   0  0  0  0  0  0  0  0  0  0  0  0
    1.3195  -12.3974   24.5636 N   0  0  0  0  0  0  0  0  0  0  0  0
    5.6821   -7.3797   17.8325 H   0  0  0  0  0  0  0  0  0  0  0  0
    4.9213   -8.6825   18.6268 H   0  0  0  0  0  0  0  0  0  0  0  0
    4.4723   -6.9280   18.6222 H   0  0  0  0  0  0  0  0  0  0  0  0
    6.4899   -6.6018   21.2946 H   0  0  0  0  0  0  0  0  0  0  0  0
    6.4538   -4.9665   19.1686 H   0  0  0  0  0  0  0  0  0  0  0  0
    7.2400   -6.4761   18.8096 H   0  0  0  0  0  0  0  0  0  0  0  0
    7.4913   -6.5583   16.3180 H   0  0  0  0  0  0  0  0  0  0  0  0
    8.4571   -1.7351   14.4154 H   0  0  0  0  0  0  0  0  0  0  0  0
   12.2402   -2.9477   14.8273 H   0  0  0  0  0  0  0  0  0  0  0  0
   11.1246   -5.0847   14.9266 H   0  0  0  0  0  0  0  0  0  0  0  0
    4.1828   -7.9607   22.3972 H   0  0  0  0  0  0  0  0  0  0  0  0
    2.4816  -12.0508   22.6273 H   0  0  0  0  0  0  0  0  0  0  0  0
    3.5612  -12.5982   22.1152 H   0  0  0  0  0  0  0  0  0  0  0  0
    2.1725  -13.9653   27.2720 H   0  0  0  0  0  0  0  0  0  0  0  0
    0.0865  -12.3733   26.3633 H   0  0  0  0  0  0  0  0  0  0  0  0
    0.7469  -11.8030   23.9921 H   0  0  0  0  0  0  0  0  0  0  0  0
  1  2  1  0
  2  3  1  0
  3  4  1  0
  4  5  1  0
  5  6  2  0
  5  7  1  0
  7  8  1  0
  8  9  2  0
  9 10  1  0
 10 11  1  0
  2 12  1  0
 12 13  1  0
 13 14  2  0
 13 15  1  0
 15 16  1  0
 16 17  2  0
 17 18  1  0
 18 19  2  0
 19 20  1  0
 11  7  2  0
 20 16  1  0
  1 21  1  0
  1 22  1  0
  1 23  1  0
  2 24  1  0
  3 25  1  0
  3 26  1  0
  4 27  1  0
  8 28  1  0
 10 29  1  0
 11 30  1  0
 12 31  1  0
 15 32  1  0
 15 33  1  0
 18 34  1  0
 19 35  1  0
 20 36  1  0
M  END
>  <Energy>  (774) 
1420.803941503847

>  <compound_id>  (774) 
12659

>  <target_id>  (774) 
1

>  <reference_id>  (774) 
116

>  <inspiration_ids>  (774) 
[116, 81]

>  <energy_score>  (774) 
1386.0054896289093

>  <distance_score>  (774) 
3.7424749612335106

>  <path>  (774) 
/opt/xchem-fragalysis-2/maxwin/BulkDock/SCRATCH/511021/C12659-P116/C12659-P116.minimised.mol

>  <scratch_subdir>  (774) 
/opt/xchem-fragalysis-2/maxwin/BulkDock/SCRATCH/511021/C12659-P116

>  <fragmenstein_runtime>  (774) 
12.231985092163086

>  <fragmenstein_outcome>  (774) 
too moved

>  <fragmenstein_mode>  (774) 
expansion

>  <fragmenstein_error>  (774) 


$$$$
C12659-P81
     RDKit          3D

 36 37  0  0  0  0  0  0  0  0999 V2000
    2.0572   -8.0996   18.6034 C   0  0  0  0  0  0  0  0  0  0  0  0
    2.6483   -6.4298   19.4621 C   0  0  0  0  0  0  0  0  0  0  0  0
    4.7012   -6.6378   18.7328 C   0  0  0  0  0  0  0  0  0  0  0  0
    6.0431   -5.7829   17.9933 N   0  0  0  0  0  0  0  0  0  0  0  0
    6.7731   -5.9305   16.4053 C   0  0  0  0  0  0  0  0  0  0  0  0
    6.5295   -6.7482   15.5652 O   0  0  0  0  0  0  0  0  0  0  0  0
    8.0031   -4.4427   15.9030 C   0  0  0  0  0  0  0  0  0  0  0  0
    7.3531   -2.9457   15.2974 C   0  0  0  0  0  0  0  0  0  0  0  0
    8.1925   -1.9326   15.1260 N   0  0  0  0  0  0  0  0  0  0  0  0
    9.3269   -2.5519   14.8458 N   0  0  0  0  0  0  0  0  0  0  0  0
    9.3185   -3.9175   15.0940 C   0  0  0  0  0  0  0  0  0  0  0  0
    1.6279   -6.4255   20.9269 N   0  0  0  0  0  0  0  0  0  0  0  0
    0.8428   -7.6241   21.6545 C   0  0  0  0  0  0  0  0  0  0  0  0
    0.6911   -8.7812   21.3137 O   0  0  0  0  0  0  0  0  0  0  0  0
    0.2538   -7.4112   23.0983 C   0  0  0  0  0  0  0  0  0  0  0  0
    0.0270   -6.2101   24.0530 C   0  0  0  0  0  0  0  0  0  0  0  0
    0.5836   -5.0210   24.1325 N   0  0  0  0  0  0  0  0  0  0  0  0
    0.0212   -4.4249   25.2378 C   0  0  0  0  0  0  0  0  0  0  0  0
   -0.9473   -5.2197   25.7997 C   0  0  0  0  0  0  0  0  0  0  0  0
   -0.9705   -6.3339   25.0160 N   0  0  0  0  0  0  0  0  0  0  0  0
    1.5003   -8.1155   17.6586 H   0  0  0  0  0  0  0  0  0  0  0  0
    1.3222   -8.5367   19.2541 H   0  0  0  0  0  0  0  0  0  0  0  0
    2.8710   -8.7861   18.3678 H   0  0  0  0  0  0  0  0  0  0  0  0
    2.5452   -5.3633   19.3235 H   0  0  0  0  0  0  0  0  0  0  0  0
    4.5575   -5.5414   18.9117 H   0  0  0  0  0  0  0  0  0  0  0  0
    4.5670   -7.0546   17.7654 H   0  0  0  0  0  0  0  0  0  0  0  0
    6.5076   -5.0656   18.5134 H   0  0  0  0  0  0  0  0  0  0  0  0
    6.3043   -2.7671   15.0942 H   0  0  0  0  0  0  0  0  0  0  0  0
   10.0235   -2.0360   14.3148 H   0  0  0  0  0  0  0  0  0  0  0  0
   10.2441   -4.4202   14.8198 H   0  0  0  0  0  0  0  0  0  0  0  0
    1.4837   -5.5539   21.4497 H   0  0  0  0  0  0  0  0  0  0  0  0
   -0.6457   -8.0310   23.0916 H   0  0  0  0  0  0  0  0  0  0  0  0
    0.9727   -7.9422   23.6752 H   0  0  0  0  0  0  0  0  0  0  0  0
    0.3388   -3.4416   25.5578 H   0  0  0  0  0  0  0  0  0  0  0  0
   -1.6046   -5.0885   26.6453 H   0  0  0  0  0  0  0  0  0  0  0  0
   -1.6157   -7.1126   25.0792 H   0  0  0  0  0  0  0  0  0  0  0  0
  1  2  1  0
  2  3  1  0
  3  4  1  0
  4  5  1  0
  5  6  2  0
  5  7  1  0
  7  8  1  0
  8  9  2  0
  9 10  1  0
 10 11  1  0
  2 12  1  0
 12 13  1  0
 13 14  2  0
 13 15  1  0
 15 16  1  0
 16 17  2  0
 17 18  1  0
 18 19  2  0
 19 20  1  0
 11  7  2  0
 20 16  1  0
  1 21  1  0
  1 22  1  0
  1 23  1  0
  2 24  1  0
  3 25  1  0
  3 26  1  0
  4 27  1  0
  8 28  1  0
 10 29  1  0
 11 30  1  0
 12 31  1  0
 15 32  1  0
 15 33  1  0
 18 34  1  0
 19 35  1  0
 20 36  1  0
M  END
>  <Energy>  (775) 
570.49725229233024

>  <compound_id>  (775) 
12659

>  <target_id>  (775) 
1

>  <reference_id>  (775) 
81

>  <inspiration_ids>  (775) 
[116, 81]

>  <energy_score>  (775) 
535.6988004173852

>  <distance_score>  (775) 
6.865399426299737

>  <path>  (775) 
/opt/xchem-fragalysis-2/maxwin/BulkDock/SCRATCH/511021/C12659-P81/C12659-P81.minimised.mol

>  <scratch_subdir>  (775) 
/opt/xchem-fragalysis-2/maxwin/BulkDock/SCRATCH/511021/C12659-P81

>  <fragmenstein_runtime>  (775) 
16.55594301223755

>  <fragmenstein_outcome>  (775) 
too moved

>  <fragmenstein_mode>  (775) 
expansion

>  <fragmenstein_error>  (775) 


$$$$
C10594-P116
     RDKit          3D

 36 37  0  0  0  0  0  0  0  0999 V2000
    5.0378   -5.3398   24.9941 C   0  0  0  0  0  0  0  0  0  0  0  0
    4.0959   -6.4109   24.2573 C   0  0  0  0  0  0  0  0  0  0  0  0
    4.9459   -7.1856   22.6713 C   0  0  0  0  0  0  0  0  0  0  0  0
    6.5861   -7.1540   21.6324 N   0  0  0  0  0  0  0  0  0  0  0  0
    7.0714   -7.4287   20.5398 C   0  0  0  0  0  0  0  0  0  0  0  0
    5.7442   -7.8781   19.6184 O   0  0  0  0  0  0  0  0  0  0  0  0
    9.1007   -7.4912   20.1196 C   0  0  0  0  0  0  0  0  0  0  0  0
   10.3069   -6.2209   20.7418 C   0  0  0  0  0  0  0  0  0  0  0  0
   11.3283   -6.7741   21.4652 C   0  0  0  0  0  0  0  0  0  0  0  0
   10.9730   -8.0699   21.4673 N   0  0  0  0  0  0  0  0  0  0  0  0
    9.9791   -8.4717   20.6108 N   0  0  0  0  0  0  0  0  0  0  0  0
    2.2732   -6.1732   24.9559 N   0  0  0  0  0  0  0  0  0  0  0  0
    0.8820   -6.4206   24.3239 C   0  0  0  0  0  0  0  0  0  0  0  0
    0.5828   -6.7352   23.2145 O   0  0  0  0  0  0  0  0  0  0  0  0
   -0.5238   -6.4000   25.3221 C   0  0  0  0  0  0  0  0  0  0  0  0
   -0.7702   -7.6710   26.3909 C   0  0  0  0  0  0  0  0  0  0  0  0
   -1.2741   -7.4980   27.6180 N   0  0  0  0  0  0  0  0  0  0  0  0
   -0.7526   -8.5278   28.4778 C   0  0  0  0  0  0  0  0  0  0  0  0
   -0.2408   -9.5451   27.6666 C   0  0  0  0  0  0  0  0  0  0  0  0
   -0.3833   -9.0219   26.3690 N   0  0  0  0  0  0  0  0  0  0  0  0
    5.3943   -5.7136   25.9619 H   0  0  0  0  0  0  0  0  0  0  0  0
    5.9354   -5.1526   24.4044 H   0  0  0  0  0  0  0  0  0  0  0  0
    4.5024   -4.4077   25.1994 H   0  0  0  0  0  0  0  0  0  0  0  0
    4.4704   -7.2429   24.8763 H   0  0  0  0  0  0  0  0  0  0  0  0
    4.4229   -8.1281   22.6163 H   0  0  0  0  0  0  0  0  0  0  0  0
    5.5977   -7.4381   23.5452 H   0  0  0  0  0  0  0  0  0  0  0  0
    6.5975   -6.9175   22.5871 H   0  0  0  0  0  0  0  0  0  0  0  0
   10.0643   -5.2106   20.6738 H   0  0  0  0  0  0  0  0  0  0  0  0
   12.1647   -6.3643   22.0124 H   0  0  0  0  0  0  0  0  0  0  0  0
   11.4710   -8.8130   21.9435 H   0  0  0  0  0  0  0  0  0  0  0  0
    2.1628   -5.8421   25.8858 H   0  0  0  0  0  0  0  0  0  0  0  0
   -0.6790   -5.5218   25.9152 H   0  0  0  0  0  0  0  0  0  0  0  0
   -1.3820   -6.4463   24.6457 H   0  0  0  0  0  0  0  0  0  0  0  0
   -0.8211   -8.4621   29.5579 H   0  0  0  0  0  0  0  0  0  0  0  0
    0.1444  -10.5388   27.8597 H   0  0  0  0  0  0  0  0  0  0  0  0
   -0.1916   -9.5974   25.5614 H   0  0  0  0  0  0  0  0  0  0  0  0
  1  2  1  0
  2  3  1  0
  3  4  1  0
  4  5  1  0
  5  6  2  0
  5  7  1  0
  7  8  1  0
  8  9  2  0
  9 10  1  0
 10 11  1  0
  2 12  1  0
 12 13  1  0
 13 14  2  0
 13 15  1  0
 15 16  1  0
 16 17  2  0
 17 18  1  0
 18 19  2  0
 19 20  1  0
 11  7  2  0
 20 16  1  0
  1 21  1  0
  1 22  1  0
  1 23  1  0
  2 24  1  0
  3 25  1  0
  3 26  1  0
  4 27  1  0
  8 28  1  0
  9 29  1  0
 10 30  1  0
 12 31  1  0
 15 32  1  0
 15 33  1  0
 18 34  1  0
 19 35  1  0
 20 36  1  0
M  END
>  <Energy>  (776) 
727.27900291873277

>  <compound_id>  (776) 
10594

>  <target_id>  (776) 
1

>  <reference_id>  (776) 
116

>  <inspiration_ids>  (776) 
[116, 81]

>  <energy_score>  (776) 
657.7811689213357

>  <distance_score>  (776) 
7.029326491288548

>  <path>  (776) 
/opt/xchem-fragalysis-2/maxwin/BulkDock/SCRATCH/511021/C10594-P116/C10594-P116.minimised.mol

>  <scratch_subdir>  (776) 
/opt/xchem-fragalysis-2/maxwin/BulkDock/SCRATCH/511021/C10594-P116

>  <fragmenstein_runtime>  (776) 
11.392499923706055

>  <fragmenstein_outcome>  (776) 
too moved

>  <fragmenstein_mode>  (776) 
expansion

>  <fragmenstein_error>  (776) 


$$$$
C10594-P81
     RDKit          3D

 36 37  0  0  0  0  0  0  0  0999 V2000
   12.4351   -5.7489   26.8421 C   0  0  0  0  0  0  0  0  0  0  0  0
   11.3975   -6.4266   25.9448 C   0  0  0  0  0  0  0  0  0  0  0  0
   12.0924   -7.3020   24.8783 C   0  0  0  0  0  0  0  0  0  0  0  0
   12.7384   -6.4952   23.8567 N   0  0  0  0  0  0  0  0  0  0  0  0
   13.5857   -6.8647   22.7652 C   0  0  0  0  0  0  0  0  0  0  0  0
   14.0455   -7.9244   22.4578 O   0  0  0  0  0  0  0  0  0  0  0  0
   13.7897   -5.6744   21.8876 C   0  0  0  0  0  0  0  0  0  0  0  0
   14.5639   -5.5470   20.7014 C   0  0  0  0  0  0  0  0  0  0  0  0
   14.3270   -4.2735   20.2366 C   0  0  0  0  0  0  0  0  0  0  0  0
   13.4957   -3.6978   21.1497 N   0  0  0  0  0  0  0  0  0  0  0  0
   13.1512   -4.5188   22.1548 N   0  0  0  0  0  0  0  0  0  0  0  0
   10.4068   -7.1076   26.7757 N   0  0  0  0  0  0  0  0  0  0  0  0
    9.2714   -7.9364   26.4162 C   0  0  0  0  0  0  0  0  0  0  0  0
    8.9042   -8.3389   25.3481 O   0  0  0  0  0  0  0  0  0  0  0  0
    8.4471   -8.1804   27.6967 C   0  0  0  0  0  0  0  0  0  0  0  0
    7.3919   -9.2464   27.6339 C   0  0  0  0  0  0  0  0  0  0  0  0
    6.2953   -9.2773   28.3758 N   0  0  0  0  0  0  0  0  0  0  0  0
    5.8760  -10.5796   28.3411 C   0  0  0  0  0  0  0  0  0  0  0  0
    6.6311  -11.3152   27.4646 C   0  0  0  0  0  0  0  0  0  0  0  0
    7.5401  -10.4321   26.9526 N   0  0  0  0  0  0  0  0  0  0  0  0
   13.1435   -5.1541   26.2568 H   0  0  0  0  0  0  0  0  0  0  0  0
   11.9491   -5.0774   27.5588 H   0  0  0  0  0  0  0  0  0  0  0  0
   13.0010   -6.4899   27.4174 H   0  0  0  0  0  0  0  0  0  0  0  0
   10.8343   -5.6391   25.4332 H   0  0  0  0  0  0  0  0  0  0  0  0
   12.8397   -7.9711   25.3182 H   0  0  0  0  0  0  0  0  0  0  0  0
   11.3674   -7.9349   24.3564 H   0  0  0  0  0  0  0  0  0  0  0  0
   12.4754   -5.5099   23.7550 H   0  0  0  0  0  0  0  0  0  0  0  0
   15.1958   -6.3028   20.2556 H   0  0  0  0  0  0  0  0  0  0  0  0
   14.6847   -3.7306   19.3741 H   0  0  0  0  0  0  0  0  0  0  0  0
   13.1215   -2.7511   21.1759 H   0  0  0  0  0  0  0  0  0  0  0  0
   10.3615   -6.8949   27.7675 H   0  0  0  0  0  0  0  0  0  0  0  0
    9.1326   -8.4540   28.5090 H   0  0  0  0  0  0  0  0  0  0  0  0
    7.9702   -7.2299   27.9653 H   0  0  0  0  0  0  0  0  0  0  0  0
    5.0579  -10.9224   28.9535 H   0  0  0  0  0  0  0  0  0  0  0  0
    6.6036  -12.3544   27.1684 H   0  0  0  0  0  0  0  0  0  0  0  0
    8.2736  -10.6403   26.2851 H   0  0  0  0  0  0  0  0  0  0  0  0
  1  2  1  0
  2  3  1  0
  3  4  1  0
  4  5  1  0
  5  6  2  0
  5  7  1  0
  7  8  1  0
  8  9  2  0
  9 10  1  0
 10 11  1  0
  2 12  1  0
 12 13  1  0
 13 14  2  0
 13 15  1  0
 15 16  1  0
 16 17  2  0
 17 18  1  0
 18 19  2  0
 19 20  1  0
 11  7  2  0
 20 16  1  0
  1 21  1  0
  1 22  1  0
  1 23  1  0
  2 24  1  0
  3 25  1  0
  3 26  1  0
  4 27  1  0
  8 28  1  0
  9 29  1  0
 10 30  1  0
 12 31  1  0
 15 32  1  0
 15 33  1  0
 18 34  1  0
 19 35  1  0
 20 36  1  0
M  END
>  <Energy>  (777) 
48.728002258598693

>  <compound_id>  (777) 
10594

>  <target_id>  (777) 
1

>  <reference_id>  (777) 
81

>  <inspiration_ids>  (777) 
[116, 81]

>  <energy_score>  (777) 
-20.769831738809046

>  <distance_score>  (777) 
7.745749176134268

>  <path>  (777) 
/opt/xchem-fragalysis-2/maxwin/BulkDock/SCRATCH/511021/C10594-P81/C10594-P81.minimised.mol

>  <scratch_subdir>  (777) 
/opt/xchem-fragalysis-2/maxwin/BulkDock/SCRATCH/511021/C10594-P81

>  <fragmenstein_runtime>  (777) 
24.989787101745605

>  <fragmenstein_outcome>  (777) 
too moved

>  <fragmenstein_mode>  (777) 
expansion

>  <fragmenstein_error>  (777) 


$$$$
C10595-P116
     RDKit          3D

 42 43  0  0  0  0  0  0  0  0999 V2000
    5.7078   -3.5309   31.7293 C   0  0  0  0  0  0  0  0  0  0  0  0
    4.3457   -3.8667   31.1429 C   0  0  0  0  0  0  0  0  0  0  0  0
    4.2670   -3.5036   29.7019 C   0  0  0  0  0  0  0  0  0  0  0  0
    4.7022   -4.1605   28.5745 C   0  0  0  0  0  0  0  0  0  0  0  0
    4.2369   -3.5259   27.4561 N   0  0  0  0  0  0  0  0  0  0  0  0
    3.7739   -2.3532   27.8460 C   0  0  0  0  0  0  0  0  0  0  0  0
    3.4863   -1.1531   26.9385 C   0  0  0  0  0  0  0  0  0  0  0  0
    4.5684   -1.1192   25.8098 C   0  0  0  0  0  0  0  0  0  0  0  0
    5.2595   -0.1445   25.6947 O   0  0  0  0  0  0  0  0  0  0  0  0
    4.6068   -2.3886   25.1226 N   0  0  0  0  0  0  0  0  0  0  0  0
    5.5544   -2.9234   24.1544 C   0  0  0  0  0  0  0  0  0  0  0  0
    5.6834   -4.4124   24.9198 C   0  0  0  0  0  0  0  0  0  0  0  0
    5.8327   -3.1787   22.2273 C   0  0  0  0  0  0  0  0  0  0  0  0
    7.2946   -3.6807   21.4521 N   0  0  0  0  0  0  0  0  0  0  0  0
    7.5399   -4.5351   20.3646 C   0  0  0  0  0  0  0  0  0  0  0  0
    6.7745   -5.0771   19.5832 O   0  0  0  0  0  0  0  0  0  0  0  0
    9.4727   -4.8881   20.4444 C   0  0  0  0  0  0  0  0  0  0  0  0
   10.5357   -5.8758   20.4298 C   0  0  0  0  0  0  0  0  0  0  0  0
   11.4878   -6.0147   21.4398 C   0  0  0  0  0  0  0  0  0  0  0  0
   11.6087   -4.7168   21.7175 N   0  0  0  0  0  0  0  0  0  0  0  0
   10.4878   -4.0559   21.4409 N   0  0  0  0  0  0  0  0  0  0  0  0
    3.6724   -2.3503   29.2214 N   0  0  0  0  0  0  0  0  0  0  0  0
    5.9240   -2.4607   31.6415 H   0  0  0  0  0  0  0  0  0  0  0  0
    5.7401   -3.7987   32.7902 H   0  0  0  0  0  0  0  0  0  0  0  0
    6.5065   -4.0782   31.2170 H   0  0  0  0  0  0  0  0  0  0  0  0
    3.5703   -3.3336   31.7057 H   0  0  0  0  0  0  0  0  0  0  0  0
    4.1511   -4.9339   31.2708 H   0  0  0  0  0  0  0  0  0  0  0  0
    5.2485   -5.0920   28.4988 H   0  0  0  0  0  0  0  0  0  0  0  0
    3.5949   -0.2342   27.5275 H   0  0  0  0  0  0  0  0  0  0  0  0
    2.4743   -1.1688   26.5524 H   0  0  0  0  0  0  0  0  0  0  0  0
    3.9193   -3.0123   25.5392 H   0  0  0  0  0  0  0  0  0  0  0  0
    6.3302   -2.3049   24.5588 H   0  0  0  0  0  0  0  0  0  0  0  0
    4.6972   -4.8382   25.1328 H   0  0  0  0  0  0  0  0  0  0  0  0
    6.2346   -5.1790   24.3727 H   0  0  0  0  0  0  0  0  0  0  0  0
    6.1829   -4.2781   25.8881 H   0  0  0  0  0  0  0  0  0  0  0  0
    5.1771   -3.0027   21.4154 H   0  0  0  0  0  0  0  0  0  0  0  0
    6.1740   -4.0713   22.7825 H   0  0  0  0  0  0  0  0  0  0  0  0
    8.0764   -3.3882   21.7655 H   0  0  0  0  0  0  0  0  0  0  0  0
   11.1713   -5.6353   19.5750 H   0  0  0  0  0  0  0  0  0  0  0  0
   12.3181   -6.6910   21.5749 H   0  0  0  0  0  0  0  0  0  0  0  0
   12.3491   -4.2280   22.2083 H   0  0  0  0  0  0  0  0  0  0  0  0
    3.3122   -1.5898   29.7818 H   0  0  0  0  0  0  0  0  0  0  0  0
  1  2  1  0
  2  3  1  0
  3  4  2  0
  4  5  1  0
  5  6  2  0
  6  7  1  0
  7  8  1  0
  8  9  2  0
  8 10  1  0
 10 11  1  0
 11 12  1  0
 11 13  1  0
 13 14  1  0
 14 15  1  0
 15 16  2  0
 15 17  1  0
 17 18  1  0
 18 19  2  0
 19 20  1  0
 20 21  1  0
  6 22  1  0
 22  3  1  0
 21 17  2  0
  1 23  1  0
  1 24  1  0
  1 25  1  0
  2 26  1  0
  2 27  1  0
  4 28  1  0
  7 29  1  0
  7 30  1  0
 10 31  1  0
 11 32  1  0
 12 33  1  0
 12 34  1  0
 12 35  1  0
 13 36  1  0
 13 37  1  0
 14 38  1  0
 18 39  1  0
 19 40  1  0
 20 41  1  0
 22 42  1  0
M  END
>  <Energy>  (778) 
411.97816885843025

>  <compound_id>  (778) 
10595

>  <target_id>  (778) 
1

>  <reference_id>  (778) 
116

>  <inspiration_ids>  (778) 
[116, 81]

>  <energy_score>  (778) 
342.0175148369383

>  <distance_score>  (778) 
9.376450996509611

>  <path>  (778) 
/opt/xchem-fragalysis-2/maxwin/BulkDock/SCRATCH/511021/C10595-P116/C10595-P116.minimised.mol

>  <scratch_subdir>  (778) 
/opt/xchem-fragalysis-2/maxwin/BulkDock/SCRATCH/511021/C10595-P116

>  <fragmenstein_runtime>  (778) 
27.776447772979736

>  <fragmenstein_outcome>  (778) 
too moved

>  <fragmenstein_mode>  (778) 
expansion

>  <fragmenstein_error>  (778) 


$$$$
C10595-P81
     RDKit          3D

 42 43  0  0  0  0  0  0  0  0999 V2000
   -0.4633  -14.0807   31.8226 C   0  0  0  0  0  0  0  0  0  0  0  0
   -0.7686  -15.3639   31.0048 C   0  0  0  0  0  0  0  0  0  0  0  0
   -1.0408  -15.1709   29.5631 C   0  0  0  0  0  0  0  0  0  0  0  0
   -2.1269  -14.9697   28.7518 C   0  0  0  0  0  0  0  0  0  0  0  0
   -1.8608  -14.9788   27.3771 N   0  0  0  0  0  0  0  0  0  0  0  0
   -0.5203  -14.4792   27.2686 C   0  0  0  0  0  0  0  0  0  0  0  0
    0.9664  -13.4885   26.0056 C   0  0  0  0  0  0  0  0  0  0  0  0
    2.2552  -12.9803   24.2971 C   0  0  0  0  0  0  0  0  0  0  0  0
    2.7770  -13.7159   23.5021 O   0  0  0  0  0  0  0  0  0  0  0  0
    2.5141  -11.3920   24.3236 N   0  0  0  0  0  0  0  0  0  0  0  0
    3.8584  -10.0642   23.2142 C   0  0  0  0  0  0  0  0  0  0  0  0
    4.4950  -11.0187   22.3256 C   0  0  0  0  0  0  0  0  0  0  0  0
    4.7381   -7.9962   23.4261 C   0  0  0  0  0  0  0  0  0  0  0  0
    6.1726   -7.0939   22.2173 N   0  0  0  0  0  0  0  0  0  0  0  0
    7.2518   -5.6006   22.4352 C   0  0  0  0  0  0  0  0  0  0  0  0
    7.3445   -4.9464   23.4368 O   0  0  0  0  0  0  0  0  0  0  0  0
    8.2768   -4.7644   20.8741 C   0  0  0  0  0  0  0  0  0  0  0  0
   10.0248   -5.5081   20.1975 C   0  0  0  0  0  0  0  0  0  0  0  0
   11.3994   -5.1559   20.6064 C   0  0  0  0  0  0  0  0  0  0  0  0
   11.0721   -3.8204   21.0458 N   0  0  0  0  0  0  0  0  0  0  0  0
    9.1696   -3.5657   20.5402 N   0  0  0  0  0  0  0  0  0  0  0  0
   -0.1750  -15.4896   28.5819 N   0  0  0  0  0  0  0  0  0  0  0  0
   -0.6716  -13.1908   31.2882 H   0  0  0  0  0  0  0  0  0  0  0  0
   -1.0917  -13.9687   32.7085 H   0  0  0  0  0  0  0  0  0  0  0  0
    0.5596  -14.0109   32.2104 H   0  0  0  0  0  0  0  0  0  0  0  0
    0.0440  -16.0924   31.0279 H   0  0  0  0  0  0  0  0  0  0  0  0
   -1.6180  -15.8759   31.4618 H   0  0  0  0  0  0  0  0  0  0  0  0
   -3.0648  -15.1632   29.2145 H   0  0  0  0  0  0  0  0  0  0  0  0
    0.7425  -12.4759   26.3699 H   0  0  0  0  0  0  0  0  0  0  0  0
    1.8052  -13.7996   26.6426 H   0  0  0  0  0  0  0  0  0  0  0  0
    2.0285  -11.0144   25.1493 H   0  0  0  0  0  0  0  0  0  0  0  0
    4.8701   -9.9633   23.7614 H   0  0  0  0  0  0  0  0  0  0  0  0
    5.5154  -10.9381   22.7894 H   0  0  0  0  0  0  0  0  0  0  0  0
    3.8283  -11.8761   22.3798 H   0  0  0  0  0  0  0  0  0  0  0  0
    4.8846  -11.0848   21.3137 H   0  0  0  0  0  0  0  0  0  0  0  0
    5.3173   -8.0251   24.4134 H   0  0  0  0  0  0  0  0  0  0  0  0
    4.0387   -7.2832   23.7881 H   0  0  0  0  0  0  0  0  0  0  0  0
    6.2239   -7.4094   21.2630 H   0  0  0  0  0  0  0  0  0  0  0  0
    9.8628   -6.0960   19.3524 H   0  0  0  0  0  0  0  0  0  0  0  0
   12.4156   -5.4351   20.3756 H   0  0  0  0  0  0  0  0  0  0  0  0
   11.4736   -3.2678   21.8034 H   0  0  0  0  0  0  0  0  0  0  0  0
    0.7422  -15.9163   28.6188 H   0  0  0  0  0  0  0  0  0  0  0  0
  1  2  1  0
  2  3  1  0
  3  4  2  0
  4  5  1  0
  5  6  2  0
  6  7  1  0
  7  8  1  0
  8  9  2  0
  8 10  1  0
 10 11  1  0
 11 12  1  0
 11 13  1  0
 13 14  1  0
 14 15  1  0
 15 16  2  0
 15 17  1  0
 17 18  1  0
 18 19  2  0
 19 20  1  0
 20 21  1  0
  6 22  1  0
 22  3  1  0
 21 17  2  0
  1 23  1  0
  1 24  1  0
  1 25  1  0
  2 26  1  0
  2 27  1  0
  4 28  1  0
  7 29  1  0
  7 30  1  0
 10 31  1  0
 11 32  1  0
 12 33  1  0
 12 34  1  0
 12 35  1  0
 13 36  1  0
 13 37  1  0
 14 38  1  0
 18 39  1  0
 19 40  1  0
 20 41  1  0
 22 42  1  0
M  END
>  <Energy>  (779) 
1474.9201413373016

>  <compound_id>  (779) 
10595

>  <target_id>  (779) 
1

>  <reference_id>  (779) 
81

>  <inspiration_ids>  (779) 
[116, 81]

>  <energy_score>  (779) 
1404.959487315853

>  <distance_score>  (779) 
5.48122495684307

>  <path>  (779) 
/opt/xchem-fragalysis-2/maxwin/BulkDock/SCRATCH/511021/C10595-P81/C10595-P81.minimised.mol

>  <scratch_subdir>  (779) 
/opt/xchem-fragalysis-2/maxwin/BulkDock/SCRATCH/511021/C10595-P81

>  <fragmenstein_runtime>  (779) 
22.485121965408325

>  <fragmenstein_outcome>  (779) 
too moved

>  <fragmenstein_mode>  (779) 
expansion

>  <fragmenstein_error>  (779) 


$$$$
C12660-P116
     RDKit          3D

 42 43  0  0  0  0  0  0  0  0999 V2000
    1.4093  -13.9834   29.0271 C   0  0  0  0  0  0  0  0  0  0  0  0
    0.2384  -13.2538   28.4130 C   0  0  0  0  0  0  0  0  0  0  0  0
    0.6469  -12.4427   27.2394 C   0  0  0  0  0  0  0  0  0  0  0  0
    0.5696  -11.1104   27.0224 C   0  0  0  0  0  0  0  0  0  0  0  0
    1.1004  -10.8449   25.7354 N   0  0  0  0  0  0  0  0  0  0  0  0
    1.3869  -11.9828   25.0037 C   0  0  0  0  0  0  0  0  0  0  0  0
    2.8386  -12.4109   23.8898 C   0  0  0  0  0  0  0  0  0  0  0  0
    3.6793  -12.2380   22.1613 C   0  0  0  0  0  0  0  0  0  0  0  0
    3.2252  -13.0206   21.4293 O   0  0  0  0  0  0  0  0  0  0  0  0
    4.9595  -11.1437   21.5405 N   0  0  0  0  0  0  0  0  0  0  0  0
    5.7280  -10.8816   19.6828 C   0  0  0  0  0  0  0  0  0  0  0  0
    5.5636  -12.4021   19.5159 C   0  0  0  0  0  0  0  0  0  0  0  0
    5.0322   -9.1125   18.5084 C   0  0  0  0  0  0  0  0  0  0  0  0
    5.5753   -7.2118   17.8137 N   0  0  0  0  0  0  0  0  0  0  0  0
    6.4075   -6.6379   16.1692 C   0  0  0  0  0  0  0  0  0  0  0  0
    6.6825   -7.4207   15.2796 O   0  0  0  0  0  0  0  0  0  0  0  0
    6.8939   -5.1909   15.7317 C   0  0  0  0  0  0  0  0  0  0  0  0
    6.0003   -3.5312   15.1095 C   0  0  0  0  0  0  0  0  0  0  0  0
    6.6270   -2.4536   14.6057 N   0  0  0  0  0  0  0  0  0  0  0  0
    7.9016   -2.6539   14.8660 N   0  0  0  0  0  0  0  0  0  0  0  0
    8.2334   -3.9557   15.4593 C   0  0  0  0  0  0  0  0  0  0  0  0
    0.7146  -12.8532   25.8982 N   0  0  0  0  0  0  0  0  0  0  0  0
    2.1797  -13.2756   29.3478 H   0  0  0  0  0  0  0  0  0  0  0  0
    1.8526  -14.6725   28.3046 H   0  0  0  0  0  0  0  0  0  0  0  0
    1.0898  -14.5581   29.9018 H   0  0  0  0  0  0  0  0  0  0  0  0
   -0.1989  -12.5940   29.1733 H   0  0  0  0  0  0  0  0  0  0  0  0
   -0.5518  -13.9599   28.1432 H   0  0  0  0  0  0  0  0  0  0  0  0
    0.2605  -10.3290   27.7013 H   0  0  0  0  0  0  0  0  0  0  0  0
    2.0649  -12.9625   23.4520 H   0  0  0  0  0  0  0  0  0  0  0  0
    3.3251  -13.1933   24.4841 H   0  0  0  0  0  0  0  0  0  0  0  0
    5.3073  -10.5872   22.3184 H   0  0  0  0  0  0  0  0  0  0  0  0
    6.8027  -10.7882   19.7958 H   0  0  0  0  0  0  0  0  0  0  0  0
    4.5878  -12.8809   19.5181 H   0  0  0  0  0  0  0  0  0  0  0  0
    6.1580  -12.9285   20.2596 H   0  0  0  0  0  0  0  0  0  0  0  0
    5.9606  -12.5655   18.5941 H   0  0  0  0  0  0  0  0  0  0  0  0
    3.9463   -9.1336   18.2378 H   0  0  0  0  0  0  0  0  0  0  0  0
    5.1532   -9.5846   17.6576 H   0  0  0  0  0  0  0  0  0  0  0  0
    5.3602   -6.4075   18.3707 H   0  0  0  0  0  0  0  0  0  0  0  0
    4.9069   -3.3995   15.2748 H   0  0  0  0  0  0  0  0  0  0  0  0
    8.5728   -1.9943   14.4725 H   0  0  0  0  0  0  0  0  0  0  0  0
    9.2914   -4.0152   15.1994 H   0  0  0  0  0  0  0  0  0  0  0  0
   -0.2328  -12.7329   25.5974 H   0  0  0  0  0  0  0  0  0  0  0  0
  1  2  1  0
  2  3  1  0
  3  4  2  0
  4  5  1  0
  5  6  2  0
  6  7  1  0
  7  8  1  0
  8  9  2  0
  8 10  1  0
 10 11  1  0
 11 12  1  0
 11 13  1  0
 13 14  1  0
 14 15  1  0
 15 16  2  0
 15 17  1  0
 17 18  1  0
 18 19  2  0
 19 20  1  0
 20 21  1  0
  6 22  1  0
 22  3  1  0
 21 17  2  0
  1 23  1  0
  1 24  1  0
  1 25  1  0
  2 26  1  0
  2 27  1  0
  4 28  1  0
  7 29  1  0
  7 30  1  0
 10 31  1  0
 11 32  1  0
 12 33  1  0
 12 34  1  0
 12 35  1  0
 13 36  1  0
 13 37  1  0
 14 38  1  0
 18 39  1  0
 20 40  1  0
 21 41  1  0
 22 42  1  0
M  END
>  <Energy>  (780) 
973.9706954182717

>  <compound_id>  (780) 
12660

>  <target_id>  (780) 
1

>  <reference_id>  (780) 
116

>  <inspiration_ids>  (780) 
[116, 81]

>  <energy_score>  (780) 
938.7548657857292

>  <distance_score>  (780) 
4.335262518835851

>  <path>  (780) 
/opt/xchem-fragalysis-2/maxwin/BulkDock/SCRATCH/511021/C12660-P116/C12660-P116.minimised.mol

>  <scratch_subdir>  (780) 
/opt/xchem-fragalysis-2/maxwin/BulkDock/SCRATCH/511021/C12660-P116

>  <fragmenstein_runtime>  (780) 
15.417066812515259

>  <fragmenstein_outcome>  (780) 
too moved

>  <fragmenstein_mode>  (780) 
expansion

>  <fragmenstein_error>  (780) 


$$$$
C12660-P81
     RDKit          3D

 42 43  0  0  0  0  0  0  0  0999 V2000
    2.1263  -16.1185   27.6266 C   0  0  0  0  0  0  0  0  0  0  0  0
    3.5447  -15.4762   27.3050 C   0  0  0  0  0  0  0  0  0  0  0  0
    3.4301  -14.1397   26.1678 C   0  0  0  0  0  0  0  0  0  0  0  0
    1.9763  -13.4884   25.8517 C   0  0  0  0  0  0  0  0  0  0  0  0
    2.0535  -12.8788   24.5124 N   0  0  0  0  0  0  0  0  0  0  0  0
    3.1491  -13.2358   23.8738 C   0  0  0  0  0  0  0  0  0  0  0  0
    3.3038  -12.6156   22.2927 C   0  0  0  0  0  0  0  0  0  0  0  0
    4.2210  -11.4513   21.9334 C   0  0  0  0  0  0  0  0  0  0  0  0
    4.0922  -10.5925   22.7249 O   0  0  0  0  0  0  0  0  0  0  0  0
    5.4002  -11.4489   20.6218 N   0  0  0  0  0  0  0  0  0  0  0  0
    6.7831  -10.2284   20.2183 C   0  0  0  0  0  0  0  0  0  0  0  0
    6.5816  -10.8594   22.2698 C   0  0  0  0  0  0  0  0  0  0  0  0
    6.5779   -7.9759   19.7535 C   0  0  0  0  0  0  0  0  0  0  0  0
    6.9895   -6.3368   18.6516 N   0  0  0  0  0  0  0  0  0  0  0  0
    7.0578   -6.0335   16.7794 C   0  0  0  0  0  0  0  0  0  0  0  0
    6.7494   -6.8203   15.9101 O   0  0  0  0  0  0  0  0  0  0  0  0
    7.8725   -4.3670   15.9387 C   0  0  0  0  0  0  0  0  0  0  0  0
    7.1590   -2.9597   15.2740 C   0  0  0  0  0  0  0  0  0  0  0  0
    7.9581   -1.9255   15.0557 N   0  0  0  0  0  0  0  0  0  0  0  0
    9.1131   -2.5016   14.7959 N   0  0  0  0  0  0  0  0  0  0  0  0
    9.1807   -3.8495   15.1071 C   0  0  0  0  0  0  0  0  0  0  0  0
    3.9745  -14.0954   24.7986 N   0  0  0  0  0  0  0  0  0  0  0  0
    1.5565  -15.2639   27.4660 H   0  0  0  0  0  0  0  0  0  0  0  0
    1.4164  -16.3956   28.4270 H   0  0  0  0  0  0  0  0  0  0  0  0
    2.0085  -16.9418   26.9278 H   0  0  0  0  0  0  0  0  0  0  0  0
    4.1032  -15.0986   28.0966 H   0  0  0  0  0  0  0  0  0  0  0  0
    3.9883  -16.2415   26.6742 H   0  0  0  0  0  0  0  0  0  0  0  0
    1.0656  -13.3573   26.3840 H   0  0  0  0  0  0  0  0  0  0  0  0
    2.4200  -12.0787   22.5934 H   0  0  0  0  0  0  0  0  0  0  0  0
    3.2751  -13.2719   21.4223 H   0  0  0  0  0  0  0  0  0  0  0  0
    5.2494  -12.2661   20.0302 H   0  0  0  0  0  0  0  0  0  0  0  0
    7.3575  -10.8041   19.4951 H   0  0  0  0  0  0  0  0  0  0  0  0
    7.1895  -10.3845   23.1081 H   0  0  0  0  0  0  0  0  0  0  0  0
    5.8044  -10.7504   22.9897 H   0  0  0  0  0  0  0  0  0  0  0  0
    7.0936  -11.7980   22.5539 H   0  0  0  0  0  0  0  0  0  0  0  0
    5.5242   -7.8165   19.3513 H   0  0  0  0  0  0  0  0  0  0  0  0
    6.7559   -7.4311   20.6751 H   0  0  0  0  0  0  0  0  0  0  0  0
    7.2088   -5.4989   19.1421 H   0  0  0  0  0  0  0  0  0  0  0  0
    6.1044   -2.8015   15.0844 H   0  0  0  0  0  0  0  0  0  0  0  0
    9.7868   -1.9709   14.2488 H   0  0  0  0  0  0  0  0  0  0  0  0
   10.1550   -4.2968   14.9248 H   0  0  0  0  0  0  0  0  0  0  0  0
    4.6954  -14.7267   24.4763 H   0  0  0  0  0  0  0  0  0  0  0  0
  1  2  1  0
  2  3  1  0
  3  4  2  0
  4  5  1  0
  5  6  2  0
  6  7  1  0
  7  8  1  0
  8  9  2  0
  8 10  1  0
 10 11  1  0
 11 12  1  0
 11 13  1  0
 13 14  1  0
 14 15  1  0
 15 16  2  0
 15 17  1  0
 17 18  1  0
 18 19  2  0
 19 20  1  0
 20 21  1  0
  6 22  1  0
 22  3  1  0
 21 17  2  0
  1 23  1  0
  1 24  1  0
  1 25  1  0
  2 26  1  0
  2 27  1  0
  4 28  1  0
  7 29  1  0
  7 30  1  0
 10 31  1  0
 11 32  1  0
 12 33  1  0
 12 34  1  0
 12 35  1  0
 13 36  1  0
 13 37  1  0
 14 38  1  0
 18 39  1  0
 20 40  1  0
 21 41  1  0
 22 42  1  0
M  END
>  <Energy>  (781) 
1047.0339604004644

>  <compound_id>  (781) 
12660

>  <target_id>  (781) 
1

>  <reference_id>  (781) 
81

>  <inspiration_ids>  (781) 
[116, 81]

>  <energy_score>  (781) 
1011.8181307679334

>  <distance_score>  (781) 
4.830175280468446

>  <path>  (781) 
/opt/xchem-fragalysis-2/maxwin/BulkDock/SCRATCH/511021/C12660-P81/C12660-P81.minimised.mol

>  <scratch_subdir>  (781) 
/opt/xchem-fragalysis-2/maxwin/BulkDock/SCRATCH/511021/C12660-P81

>  <fragmenstein_runtime>  (781) 
20.741739511489868

>  <fragmenstein_outcome>  (781) 
too moved

>  <fragmenstein_mode>  (781) 
expansion

>  <fragmenstein_error>  (781) 


$$$$
C46834-P116
     RDKit          3D

 46 48  0  0  0  0  0  0  0  0999 V2000
    5.7659   -6.4648   23.7960 C   0  0  0  0  0  0  0  0  0  0  0  0
    5.6864   -7.2367   22.3737 C   0  0  0  0  0  0  0  0  0  0  0  0
    6.6283   -7.2503   20.4685 C   0  0  0  0  0  0  0  0  0  0  0  0
    7.7834   -6.3642   19.1713 N   0  0  0  0  0  0  0  0  0  0  0  0
    9.7035   -5.7868   19.3661 C   0  0  0  0  0  0  0  0  0  0  0  0
   10.2430   -5.9042   20.4390 O   0  0  0  0  0  0  0  0  0  0  0  0
   10.9891   -5.0386   18.0950 C   0  0  0  0  0  0  0  0  0  0  0  0
   12.2397   -4.8688   18.8379 N   0  0  0  0  0  0  0  0  0  0  0  0
   13.1888   -4.3961   18.0566 N   0  0  0  0  0  0  0  0  0  0  0  0
   12.7374   -4.0387   16.8677 C   0  0  0  0  0  0  0  0  0  0  0  0
   11.4174   -4.4126   16.7529 C   0  0  0  0  0  0  0  0  0  0  0  0
   11.0594   -3.9769   15.3478 C   0  0  0  0  0  0  0  0  0  0  0  0
   12.1572   -2.9417   14.9518 C   0  0  0  0  0  0  0  0  0  0  0  0
   13.4019   -3.3714   15.7430 C   0  0  0  0  0  0  0  0  0  0  0  0
    4.4071   -8.6501   22.7758 N   0  0  0  0  0  0  0  0  0  0  0  0
    4.6364  -10.5907   22.7990 C   0  0  0  0  0  0  0  0  0  0  0  0
    5.7218  -11.1187   22.6340 O   0  0  0  0  0  0  0  0  0  0  0  0
    3.0521  -12.0082   23.2985 C   0  0  0  0  0  0  0  0  0  0  0  0
    1.5630  -11.9796   24.6952 C   0  0  0  0  0  0  0  0  0  0  0  0
    1.1862  -10.9206   25.6077 N   0  0  0  0  0  0  0  0  0  0  0  0
    1.0259  -11.3586   27.0361 C   0  0  0  0  0  0  0  0  0  0  0  0
    1.3286  -12.6997   27.0822 C   0  0  0  0  0  0  0  0  0  0  0  0
    0.8120  -12.9129   25.7915 N   0  0  0  0  0  0  0  0  0  0  0  0
   -0.8302  -12.7926   26.2411 C   0  0  0  0  0  0  0  0  0  0  0  0
    4.7889   -6.4329   24.2757 H   0  0  0  0  0  0  0  0  0  0  0  0
    6.1817   -5.4608   23.7430 H   0  0  0  0  0  0  0  0  0  0  0  0
    6.3587   -7.0184   24.5472 H   0  0  0  0  0  0  0  0  0  0  0  0
    6.6200   -7.4846   22.8211 H   0  0  0  0  0  0  0  0  0  0  0  0
    6.5766   -6.1929   20.7552 H   0  0  0  0  0  0  0  0  0  0  0  0
    6.1132   -7.7567   19.6634 H   0  0  0  0  0  0  0  0  0  0  0  0
    7.4437   -6.1190   18.2174 H   0  0  0  0  0  0  0  0  0  0  0  0
   14.1267   -4.3481   18.4360 H   0  0  0  0  0  0  0  0  0  0  0  0
   10.0903   -3.5118   15.1860 H   0  0  0  0  0  0  0  0  0  0  0  0
   11.1838   -4.8272   14.6753 H   0  0  0  0  0  0  0  0  0  0  0  0
   11.8415   -1.9408   15.2755 H   0  0  0  0  0  0  0  0  0  0  0  0
   12.3310   -2.9078   13.8719 H   0  0  0  0  0  0  0  0  0  0  0  0
   14.0110   -4.0776   15.1704 H   0  0  0  0  0  0  0  0  0  0  0  0
   14.0098   -2.5126   16.0384 H   0  0  0  0  0  0  0  0  0  0  0  0
    3.4382   -8.4308   22.8415 H   0  0  0  0  0  0  0  0  0  0  0  0
    3.5593  -12.7454   23.9297 H   0  0  0  0  0  0  0  0  0  0  0  0
    2.6547  -12.6338   22.4940 H   0  0  0  0  0  0  0  0  0  0  0  0
    0.8109  -10.6582   27.8336 H   0  0  0  0  0  0  0  0  0  0  0  0
    1.3350  -13.4483   27.8616 H   0  0  0  0  0  0  0  0  0  0  0  0
   -1.4515  -13.0183   25.3817 H   0  0  0  0  0  0  0  0  0  0  0  0
   -0.9357  -13.5249   27.0497 H   0  0  0  0  0  0  0  0  0  0  0  0
   -1.0533  -11.8250   26.6995 H   0  0  0  0  0  0  0  0  0  0  0  0
  1  2  1  0
  2  3  1  0
  3  4  1  0
  4  5  1  0
  5  6  2  0
  5  7  1  0
  7  8  2  0
  8  9  1  0
  9 10  1  0
 10 11  2  0
 11 12  1  0
 12 13  1  0
 13 14  1  0
  2 15  1  0
 15 16  1  0
 16 17  2  0
 16 18  1  0
 18 19  1  0
 19 20  2  0
 20 21  1  0
 21 22  2  0
 22 23  1  0
 23 24  1  0
 11  7  1  0
 23 19  1  0
 14 10  1  0
  1 25  1  0
  1 26  1  0
  1 27  1  0
  2 28  1  0
  3 29  1  0
  3 30  1  0
  4 31  1  0
  9 32  1  0
 12 33  1  0
 12 34  1  0
 13 35  1  0
 13 36  1  0
 14 37  1  0
 14 38  1  0
 15 39  1  0
 18 40  1  0
 18 41  1  0
 21 42  1  0
 22 43  1  0
 24 44  1  0
 24 45  1  0
 24 46  1  0
M  END
>  <Energy>  (782) 
1100.276678544453

>  <compound_id>  (782) 
46834

>  <target_id>  (782) 
1

>  <reference_id>  (782) 
116

>  <inspiration_ids>  (782) 
[116, 81]

>  <energy_score>  (782) 
1003.7464272328327

>  <distance_score>  (782) 
3.9450907200886633

>  <path>  (782) 
/opt/xchem-fragalysis-2/maxwin/BulkDock/SCRATCH/511021/C46834-P116/C46834-P116.minimised.mol

>  <scratch_subdir>  (782) 
/opt/xchem-fragalysis-2/maxwin/BulkDock/SCRATCH/511021/C46834-P116

>  <fragmenstein_runtime>  (782) 
42.03991341590881

>  <fragmenstein_outcome>  (782) 
too moved

>  <fragmenstein_mode>  (782) 
expansion

>  <fragmenstein_error>  (782) 


$$$$
C46834-P81
     RDKit          3D

 46 48  0  0  0  0  0  0  0  0999 V2000
    5.1274   -7.5046   23.8454 C   0  0  0  0  0  0  0  0  0  0  0  0
    4.7426   -8.3117   22.3438 C   0  0  0  0  0  0  0  0  0  0  0  0
    6.3735   -7.4436   20.9496 C   0  0  0  0  0  0  0  0  0  0  0  0
    7.5868   -6.6973   19.3582 N   0  0  0  0  0  0  0  0  0  0  0  0
    9.6275   -6.1080   19.3416 C   0  0  0  0  0  0  0  0  0  0  0  0
   10.2268   -6.2959   20.3709 O   0  0  0  0  0  0  0  0  0  0  0  0
   10.8534   -5.1600   18.0932 C   0  0  0  0  0  0  0  0  0  0  0  0
   12.2008   -5.0171   18.8257 N   0  0  0  0  0  0  0  0  0  0  0  0
   12.9950   -4.1878   18.1605 N   0  0  0  0  0  0  0  0  0  0  0  0
   12.5373   -3.8209   16.9728 C   0  0  0  0  0  0  0  0  0  0  0  0
   11.2848   -4.3443   16.7482 C   0  0  0  0  0  0  0  0  0  0  0  0
   10.8617   -3.7453   15.4035 C   0  0  0  0  0  0  0  0  0  0  0  0
   11.8489   -2.5573   15.1711 C   0  0  0  0  0  0  0  0  0  0  0  0
   13.0968   -2.8577   16.0163 C   0  0  0  0  0  0  0  0  0  0  0  0
    4.5911  -10.5201   22.3356 N   0  0  0  0  0  0  0  0  0  0  0  0
    3.2450  -11.8180   23.1010 C   0  0  0  0  0  0  0  0  0  0  0  0
    2.5086  -11.2673   23.7050 O   0  0  0  0  0  0  0  0  0  0  0  0
    2.8147  -13.6874   23.2856 C   0  0  0  0  0  0  0  0  0  0  0  0
    0.7844  -14.0755   23.7165 C   0  0  0  0  0  0  0  0  0  0  0  0
   -0.0270  -13.6753   22.6645 N   0  0  0  0  0  0  0  0  0  0  0  0
   -0.6734  -14.6478   22.0543 C   0  0  0  0  0  0  0  0  0  0  0  0
   -1.2796  -14.8534   23.2612 C   0  0  0  0  0  0  0  0  0  0  0  0
   -0.6626  -14.2717   24.2791 N   0  0  0  0  0  0  0  0  0  0  0  0
   -1.8525  -14.1220   25.3071 C   0  0  0  0  0  0  0  0  0  0  0  0
    4.1265   -7.2001   24.0581 H   0  0  0  0  0  0  0  0  0  0  0  0
    5.4846   -8.1378   24.6834 H   0  0  0  0  0  0  0  0  0  0  0  0
    5.8371   -6.7116   23.6394 H   0  0  0  0  0  0  0  0  0  0  0  0
    3.6951   -8.0968   22.6269 H   0  0  0  0  0  0  0  0  0  0  0  0
    6.7722   -6.7209   21.6689 H   0  0  0  0  0  0  0  0  0  0  0  0
    5.9236   -7.7032   19.9405 H   0  0  0  0  0  0  0  0  0  0  0  0
    7.1541   -6.4197   18.4784 H   0  0  0  0  0  0  0  0  0  0  0  0
   13.8538   -3.9086   18.6209 H   0  0  0  0  0  0  0  0  0  0  0  0
    9.8630   -3.3521   15.2568 H   0  0  0  0  0  0  0  0  0  0  0  0
   10.9863   -4.4454   14.5890 H   0  0  0  0  0  0  0  0  0  0  0  0
   11.3814   -1.6313   15.5316 H   0  0  0  0  0  0  0  0  0  0  0  0
   12.0849   -2.4164   14.1115 H   0  0  0  0  0  0  0  0  0  0  0  0
   13.8976   -3.3022   15.4256 H   0  0  0  0  0  0  0  0  0  0  0  0
   13.4745   -1.9501   16.4962 H   0  0  0  0  0  0  0  0  0  0  0  0
    5.2014  -11.0195   21.7161 H   0  0  0  0  0  0  0  0  0  0  0  0
    3.0357  -14.4952   22.5628 H   0  0  0  0  0  0  0  0  0  0  0  0
    3.3951  -13.8674   24.2059 H   0  0  0  0  0  0  0  0  0  0  0  0
   -0.9432  -14.8542   21.0284 H   0  0  0  0  0  0  0  0  0  0  0  0
   -2.1957  -15.2753   23.6426 H   0  0  0  0  0  0  0  0  0  0  0  0
   -2.6361  -14.8161   25.0236 H   0  0  0  0  0  0  0  0  0  0  0  0
   -1.9404  -14.7389   26.2190 H   0  0  0  0  0  0  0  0  0  0  0  0
   -2.2538  -13.1067   25.3229 H   0  0  0  0  0  0  0  0  0  0  0  0
  1  2  1  0
  2  3  1  0
  3  4  1  0
  4  5  1  0
  5  6  2  0
  5  7  1  0
  7  8  2  0
  8  9  1  0
  9 10  1  0
 10 11  2  0
 11 12  1  0
 12 13  1  0
 13 14  1  0
  2 15  1  0
 15 16  1  0
 16 17  2  0
 16 18  1  0
 18 19  1  0
 19 20  2  0
 20 21  1  0
 21 22  2  0
 22 23  1  0
 23 24  1  0
 11  7  1  0
 23 19  1  0
 14 10  1  0
  1 25  1  0
  1 26  1  0
  1 27  1  0
  2 28  1  0
  3 29  1  0
  3 30  1  0
  4 31  1  0
  9 32  1  0
 12 33  1  0
 12 34  1  0
 13 35  1  0
 13 36  1  0
 14 37  1  0
 14 38  1  0
 15 39  1  0
 18 40  1  0
 18 41  1  0
 21 42  1  0
 22 43  1  0
 24 44  1  0
 24 45  1  0
 24 46  1  0
M  END
>  <Energy>  (783) 
1673.0361492687432

>  <compound_id>  (783) 
46834

>  <target_id>  (783) 
1

>  <reference_id>  (783) 
81

>  <inspiration_ids>  (783) 
[116, 81]

>  <energy_score>  (783) 
1576.505897957149

>  <distance_score>  (783) 
5.2099058905739035

>  <path>  (783) 
/opt/xchem-fragalysis-2/maxwin/BulkDock/SCRATCH/511021/C46834-P81/C46834-P81.minimised.mol

>  <scratch_subdir>  (783) 
/opt/xchem-fragalysis-2/maxwin/BulkDock/SCRATCH/511021/C46834-P81

>  <fragmenstein_runtime>  (783) 
22.35649800300598

>  <fragmenstein_outcome>  (783) 
too moved

>  <fragmenstein_mode>  (783) 
expansion

>  <fragmenstein_error>  (783) 


$$$$
C12661-P116
     RDKit          3D

 43 45  0  0  0  0  0  0  0  0999 V2000
    4.2443   -6.6656   18.9213 C   0  0  0  0  0  0  0  0  0  0  0  0
    4.9064   -7.8800   20.4749 C   0  0  0  0  0  0  0  0  0  0  0  0
    6.5280   -7.4810   19.4963 C   0  0  0  0  0  0  0  0  0  0  0  0
    6.5290   -6.7504   18.0703 N   0  0  0  0  0  0  0  0  0  0  0  0
    6.6595   -5.5479   17.7561 C   0  0  0  0  0  0  0  0  0  0  0  0
    6.7255   -4.6505   18.4432 O   0  0  0  0  0  0  0  0  0  0  0  0
    6.9346   -5.2609   15.8239 C   0  0  0  0  0  0  0  0  0  0  0  0
    6.0398   -3.5886   15.1448 C   0  0  0  0  0  0  0  0  0  0  0  0
    6.6051   -2.5267   14.5502 N   0  0  0  0  0  0  0  0  0  0  0  0
    7.8728   -2.6518   14.8664 N   0  0  0  0  0  0  0  0  0  0  0  0
    8.2121   -3.9424   15.4922 C   0  0  0  0  0  0  0  0  0  0  0  0
    3.1699   -8.5361   21.8095 N   0  0  0  0  0  0  0  0  0  0  0  0
    1.5963   -9.5970   21.3099 C   0  0  0  0  0  0  0  0  0  0  0  0
    1.5813   -9.7618   20.2140 O   0  0  0  0  0  0  0  0  0  0  0  0
    0.4569  -10.4084   21.9156 C   0  0  0  0  0  0  0  0  0  0  0  0
    0.7710  -11.9925   22.8262 C   0  0  0  0  0  0  0  0  0  0  0  0
    2.0489  -12.4639   22.8999 N   0  0  0  0  0  0  0  0  0  0  0  0
    2.2797  -12.7138   24.1749 C   0  0  0  0  0  0  0  0  0  0  0  0
    1.1482  -12.5916   24.9003 C   0  0  0  0  0  0  0  0  0  0  0  0
    0.2170  -12.6282   23.8896 N   0  0  0  0  0  0  0  0  0  0  0  0
    4.8370   -8.9306   18.7231 C   0  0  0  0  0  0  0  0  0  0  0  0
    5.6529  -10.2366   18.4311 C   0  0  0  0  0  0  0  0  0  0  0  0
    3.8384   -9.4844   17.8119 C   0  0  0  0  0  0  0  0  0  0  0  0
    3.1216   -6.6237   19.3202 H   0  0  0  0  0  0  0  0  0  0  0  0
    4.3047   -6.9196   17.8651 H   0  0  0  0  0  0  0  0  0  0  0  0
    4.6337   -5.5842   18.9023 H   0  0  0  0  0  0  0  0  0  0  0  0
    6.7856   -6.5494   19.9040 H   0  0  0  0  0  0  0  0  0  0  0  0
    7.4968   -7.7512   19.5847 H   0  0  0  0  0  0  0  0  0  0  0  0
    6.4207   -7.2495   17.2629 H   0  0  0  0  0  0  0  0  0  0  0  0
    4.9766   -3.4639   15.4377 H   0  0  0  0  0  0  0  0  0  0  0  0
    8.5327   -1.9843   14.4665 H   0  0  0  0  0  0  0  0  0  0  0  0
    9.2335   -4.0278   15.1206 H   0  0  0  0  0  0  0  0  0  0  0  0
    3.2021   -8.4761   22.7876 H   0  0  0  0  0  0  0  0  0  0  0  0
   -0.2897  -10.6041   21.1322 H   0  0  0  0  0  0  0  0  0  0  0  0
    0.7820   -9.3268   22.1199 H   0  0  0  0  0  0  0  0  0  0  0  0
    3.2230  -13.0902   24.5173 H   0  0  0  0  0  0  0  0  0  0  0  0
    0.8930  -12.6957   25.9472 H   0  0  0  0  0  0  0  0  0  0  0  0
   -0.7305  -12.5577   24.1956 H   0  0  0  0  0  0  0  0  0  0  0  0
    5.1788   -8.1658   18.1461 H   0  0  0  0  0  0  0  0  0  0  0  0
    5.7407  -11.4017   18.4731 H   0  0  0  0  0  0  0  0  0  0  0  0
    6.0359  -10.8432   19.3645 H   0  0  0  0  0  0  0  0  0  0  0  0
    3.5707  -10.0927   16.9415 H   0  0  0  0  0  0  0  0  0  0  0  0
    2.8100   -9.4342   18.2014 H   0  0  0  0  0  0  0  0  0  0  0  0
  1  2  1  0
  2  3  1  0
  3  4  1  0
  4  5  1  0
  5  6  2  0
  5  7  1  0
  7  8  1  0
  8  9  2  0
  9 10  1  0
 10 11  1  0
  2 12  1  0
 12 13  1  0
 13 14  2  0
 13 15  1  0
 15 16  1  0
 16 17  2  0
 17 18  1  0
 18 19  2  0
 19 20  1  0
  2 21  1  0
 21 22  1  0
 22 23  1  0
 11  7  2  0
 20 16  1  0
 23 21  1  0
  1 24  1  0
  1 25  1  0
  1 26  1  0
  3 27  1  0
  3 28  1  0
  4 29  1  0
  8 30  1  0
 10 31  1  0
 11 32  1  0
 12 33  1  0
 15 34  1  0
 15 35  1  0
 18 36  1  0
 19 37  1  0
 20 38  1  0
 21 39  1  0
 22 40  1  0
 22 41  1  0
 23 42  1  0
 23 43  1  0
M  END
>  <Energy>  (784) 
1430.6417385427994

>  <compound_id>  (784) 
12661

>  <target_id>  (784) 
1

>  <reference_id>  (784) 
116

>  <inspiration_ids>  (784) 
[116, 81]

>  <energy_score>  (784) 
1359.3027009193152

>  <distance_score>  (784) 
5.445273387866288

>  <path>  (784) 
/opt/xchem-fragalysis-2/maxwin/BulkDock/SCRATCH/511021/C12661-P116/C12661-P116.minimised.mol

>  <scratch_subdir>  (784) 
/opt/xchem-fragalysis-2/maxwin/BulkDock/SCRATCH/511021/C12661-P116

>  <fragmenstein_runtime>  (784) 
18.934296131134033

>  <fragmenstein_outcome>  (784) 
too moved

>  <fragmenstein_mode>  (784) 
expansion

>  <fragmenstein_error>  (784) 


$$$$
C12661-P81
     RDKit          3D

 43 45  0  0  0  0  0  0  0  0999 V2000
    4.1064   -5.9687   19.4680 C   0  0  0  0  0  0  0  0  0  0  0  0
    5.2306   -7.6407   20.3138 C   0  0  0  0  0  0  0  0  0  0  0  0
    7.2470   -7.4200   19.7472 C   0  0  0  0  0  0  0  0  0  0  0  0
    9.1855   -8.0128   20.2145 N   0  0  0  0  0  0  0  0  0  0  0  0
   10.4934   -7.1509   20.6017 C   0  0  0  0  0  0  0  0  0  0  0  0
   10.6349   -5.9282   20.5889 O   0  0  0  0  0  0  0  0  0  0  0  0
   11.7730   -7.8247   21.2102 C   0  0  0  0  0  0  0  0  0  0  0  0
   13.0058   -7.0477   21.3200 C   0  0  0  0  0  0  0  0  0  0  0  0
   13.9641   -7.6652   22.0002 N   0  0  0  0  0  0  0  0  0  0  0  0
   13.3295   -8.7191   22.5151 N   0  0  0  0  0  0  0  0  0  0  0  0
   12.0002   -8.7847   22.1790 C   0  0  0  0  0  0  0  0  0  0  0  0
    3.9008   -8.0422   22.1073 N   0  0  0  0  0  0  0  0  0  0  0  0
    1.8947   -8.4331   22.0573 C   0  0  0  0  0  0  0  0  0  0  0  0
    1.2430   -8.6066   21.0275 O   0  0  0  0  0  0  0  0  0  0  0  0
    0.9267   -8.4126   23.1738 C   0  0  0  0  0  0  0  0  0  0  0  0
    0.0779  -10.0908   22.4188 C   0  0  0  0  0  0  0  0  0  0  0  0
    1.0607  -11.0874   21.8704 N   0  0  0  0  0  0  0  0  0  0  0  0
    2.4645  -11.9197   22.8257 C   0  0  0  0  0  0  0  0  0  0  0  0
    1.8423  -12.0125   23.9301 C   0  0  0  0  0  0  0  0  0  0  0  0
    0.5965  -11.5876   22.8883 N   0  0  0  0  0  0  0  0  0  0  0  0
    5.1924   -7.2198   18.3217 C   0  0  0  0  0  0  0  0  0  0  0  0
    6.1518   -6.6059   17.0698 C   0  0  0  0  0  0  0  0  0  0  0  0
    4.8224   -6.1762   17.0641 C   0  0  0  0  0  0  0  0  0  0  0  0
    2.9678   -6.0235   19.6340 H   0  0  0  0  0  0  0  0  0  0  0  0
    4.6392   -5.2276   18.8942 H   0  0  0  0  0  0  0  0  0  0  0  0
    3.9548   -5.0314   20.0479 H   0  0  0  0  0  0  0  0  0  0  0  0
    7.2826   -7.2373   18.7261 H   0  0  0  0  0  0  0  0  0  0  0  0
    7.1473   -6.2943   19.6826 H   0  0  0  0  0  0  0  0  0  0  0  0
    9.4039   -8.9309   20.2425 H   0  0  0  0  0  0  0  0  0  0  0  0
   13.2005   -6.0681   20.8915 H   0  0  0  0  0  0  0  0  0  0  0  0
   13.8392   -9.3086   23.1661 H   0  0  0  0  0  0  0  0  0  0  0  0
   11.3712   -9.4631   22.7348 H   0  0  0  0  0  0  0  0  0  0  0  0
    4.2019   -7.8541   23.0684 H   0  0  0  0  0  0  0  0  0  0  0  0
    0.1456   -7.8337   22.6539 H   0  0  0  0  0  0  0  0  0  0  0  0
    0.5935   -7.9221   24.0685 H   0  0  0  0  0  0  0  0  0  0  0  0
    3.2709  -12.3540   22.2596 H   0  0  0  0  0  0  0  0  0  0  0  0
    1.8035  -12.8304   24.6238 H   0  0  0  0  0  0  0  0  0  0  0  0
   -0.0885  -12.3005   22.7655 H   0  0  0  0  0  0  0  0  0  0  0  0
    5.8129   -6.3982   18.6873 H   0  0  0  0  0  0  0  0  0  0  0  0
    6.4210   -6.8604   16.0549 H   0  0  0  0  0  0  0  0  0  0  0  0
    6.9309   -5.9694   17.3868 H   0  0  0  0  0  0  0  0  0  0  0  0
    4.2729   -6.4076   16.1647 H   0  0  0  0  0  0  0  0  0  0  0  0
    4.6512   -5.1134   17.1170 H   0  0  0  0  0  0  0  0  0  0  0  0
  1  2  1  0
  2  3  1  0
  3  4  1  0
  4  5  1  0
  5  6  2  0
  5  7  1  0
  7  8  1  0
  8  9  2  0
  9 10  1  0
 10 11  1  0
  2 12  1  0
 12 13  1  0
 13 14  2  0
 13 15  1  0
 15 16  1  0
 16 17  2  0
 17 18  1  0
 18 19  2  0
 19 20  1  0
  2 21  1  0
 21 22  1  0
 22 23  1  0
 11  7  2  0
 20 16  1  0
 23 21  1  0
  1 24  1  0
  1 25  1  0
  1 26  1  0
  3 27  1  0
  3 28  1  0
  4 29  1  0
  8 30  1  0
 10 31  1  0
 11 32  1  0
 12 33  1  0
 15 34  1  0
 15 35  1  0
 18 36  1  0
 19 37  1  0
 20 38  1  0
 21 39  1  0
 22 40  1  0
 22 41  1  0
 23 42  1  0
 23 43  1  0
M  END
>  <Energy>  (785) 
1645.4890694109877

>  <compound_id>  (785) 
12661

>  <target_id>  (785) 
1

>  <reference_id>  (785) 
81

>  <inspiration_ids>  (785) 
[116, 81]

>  <energy_score>  (785) 
1574.1500317875345

>  <distance_score>  (785) 
8.202381889612093

>  <path>  (785) 
/opt/xchem-fragalysis-2/maxwin/BulkDock/SCRATCH/511021/C12661-P81/C12661-P81.minimised.mol

>  <scratch_subdir>  (785) 
/opt/xchem-fragalysis-2/maxwin/BulkDock/SCRATCH/511021/C12661-P81

>  <fragmenstein_runtime>  (785) 
22.340085983276367

>  <fragmenstein_outcome>  (785) 
too moved

>  <fragmenstein_mode>  (785) 
expansion

>  <fragmenstein_error>  (785) 


$$$$
C10596-P116
     RDKit          3D

 43 45  0  0  0  0  0  0  0  0999 V2000
    6.4188   -7.6847   19.9395 C   0  0  0  0  0  0  0  0  0  0  0  0
    5.0305   -8.1032   18.7329 C   0  0  0  0  0  0  0  0  0  0  0  0
    6.8187   -6.6654   18.3630 C   0  0  0  0  0  0  0  0  0  0  0  0
    8.8237   -6.2654   19.2559 N   0  0  0  0  0  0  0  0  0  0  0  0
   10.4372   -5.4960   18.6244 C   0  0  0  0  0  0  0  0  0  0  0  0
   10.7181   -4.9396   17.5289 O   0  0  0  0  0  0  0  0  0  0  0  0
   11.7751   -5.4233   19.8088 C   0  0  0  0  0  0  0  0  0  0  0  0
   11.8829   -5.8952   21.1398 C   0  0  0  0  0  0  0  0  0  0  0  0
   13.1240   -5.4865   21.5668 C   0  0  0  0  0  0  0  0  0  0  0  0
   13.6962   -4.8396   20.5146 N   0  0  0  0  0  0  0  0  0  0  0  0
   12.9170   -4.7830   19.4412 N   0  0  0  0  0  0  0  0  0  0  0  0
    3.1315   -9.3341   18.9555 N   0  0  0  0  0  0  0  0  0  0  0  0
    1.8872   -9.7274   20.6118 C   0  0  0  0  0  0  0  0  0  0  0  0
    2.1702   -9.1086   21.6951 O   0  0  0  0  0  0  0  0  0  0  0  0
    0.5470  -10.8237   20.9593 C   0  0  0  0  0  0  0  0  0  0  0  0
    0.8462  -11.9568   22.5226 C   0  0  0  0  0  0  0  0  0  0  0  0
    2.1573  -12.3960   22.7339 N   0  0  0  0  0  0  0  0  0  0  0  0
    2.2963  -12.6843   24.0229 C   0  0  0  0  0  0  0  0  0  0  0  0
    1.1190  -12.5609   24.6582 C   0  0  0  0  0  0  0  0  0  0  0  0
    0.2320  -12.5567   23.6015 N   0  0  0  0  0  0  0  0  0  0  0  0
    3.8860   -7.3105   17.9003 C   0  0  0  0  0  0  0  0  0  0  0  0
    2.0011   -7.8954   17.9761 C   0  0  0  0  0  0  0  0  0  0  0  0
    2.8143   -8.3712   16.9431 C   0  0  0  0  0  0  0  0  0  0  0  0
    6.7436   -6.6898   20.0992 H   0  0  0  0  0  0  0  0  0  0  0  0
    6.2334   -7.5112   21.0042 H   0  0  0  0  0  0  0  0  0  0  0  0
    7.3499   -7.8908   19.5415 H   0  0  0  0  0  0  0  0  0  0  0  0
    6.3580   -5.6873   18.6492 H   0  0  0  0  0  0  0  0  0  0  0  0
    6.7934   -6.4237   17.2868 H   0  0  0  0  0  0  0  0  0  0  0  0
    8.9802   -6.6900   20.1226 H   0  0  0  0  0  0  0  0  0  0  0  0
   11.1814   -6.4889   21.6899 H   0  0  0  0  0  0  0  0  0  0  0  0
   13.6534   -5.6202   22.4985 H   0  0  0  0  0  0  0  0  0  0  0  0
   14.6226   -4.4325   20.4496 H   0  0  0  0  0  0  0  0  0  0  0  0
    2.8575   -9.9454   18.1985 H   0  0  0  0  0  0  0  0  0  0  0  0
    0.3729  -10.1235   21.6676 H   0  0  0  0  0  0  0  0  0  0  0  0
   -0.5267  -10.7567   20.6770 H   0  0  0  0  0  0  0  0  0  0  0  0
    3.2076  -13.0504   24.4414 H   0  0  0  0  0  0  0  0  0  0  0  0
    0.8166  -12.6459   25.6937 H   0  0  0  0  0  0  0  0  0  0  0  0
   -0.7217  -12.5574   23.8653 H   0  0  0  0  0  0  0  0  0  0  0  0
    4.4257   -6.5704   17.2750 H   0  0  0  0  0  0  0  0  0  0  0  0
    1.4761   -8.1276   18.8856 H   0  0  0  0  0  0  0  0  0  0  0  0
    1.1213   -8.2776   17.4078 H   0  0  0  0  0  0  0  0  0  0  0  0
    3.2604   -9.3631   16.9270 H   0  0  0  0  0  0  0  0  0  0  0  0
    2.5409   -8.0482   15.9117 H   0  0  0  0  0  0  0  0  0  0  0  0
  1  2  1  0
  2  3  1  0
  3  4  1  0
  4  5  1  0
  5  6  2  0
  5  7  1  0
  7  8  1  0
  8  9  2  0
  9 10  1  0
 10 11  1  0
  2 12  1  0
 12 13  1  0
 13 14  2  0
 13 15  1  0
 15 16  1  0
 16 17  2  0
 17 18  1  0
 18 19  2  0
 19 20  1  0
  2 21  1  0
 21 22  1  0
 22 23  1  0
 11  7  2  0
 20 16  1  0
 23 21  1  0
  1 24  1  0
  1 25  1  0
  1 26  1  0
  3 27  1  0
  3 28  1  0
  4 29  1  0
  8 30  1  0
  9 31  1  0
 10 32  1  0
 12 33  1  0
 15 34  1  0
 15 35  1  0
 18 36  1  0
 19 37  1  0
 20 38  1  0
 21 39  1  0
 22 40  1  0
 22 41  1  0
 23 42  1  0
 23 43  1  0
M  END
>  <Energy>  (786) 
1685.0638857629842

>  <compound_id>  (786) 
10596

>  <target_id>  (786) 
1

>  <reference_id>  (786) 
116

>  <inspiration_ids>  (786) 
[116, 81]

>  <energy_score>  (786) 
1582.3088810755844

>  <distance_score>  (786) 
5.979220389494048

>  <path>  (786) 
/opt/xchem-fragalysis-2/maxwin/BulkDock/SCRATCH/511021/C10596-P116/C10596-P116.minimised.mol

>  <scratch_subdir>  (786) 
/opt/xchem-fragalysis-2/maxwin/BulkDock/SCRATCH/511021/C10596-P116

>  <fragmenstein_runtime>  (786) 
22.995605945587158

>  <fragmenstein_outcome>  (786) 
too moved

>  <fragmenstein_mode>  (786) 
expansion

>  <fragmenstein_error>  (786) 


$$$$
C10596-P81
     RDKit          3D

 43 45  0  0  0  0  0  0  0  0999 V2000
    6.7575   -6.8101   22.4933 C   0  0  0  0  0  0  0  0  0  0  0  0
    6.4733   -7.6923   20.7379 C   0  0  0  0  0  0  0  0  0  0  0  0
    7.4516   -6.5368   19.2061 C   0  0  0  0  0  0  0  0  0  0  0  0
    9.5753   -6.1454   19.4024 N   0  0  0  0  0  0  0  0  0  0  0  0
   10.8324   -5.2612   18.3419 C   0  0  0  0  0  0  0  0  0  0  0  0
   10.7405   -4.7551   17.2121 O   0  0  0  0  0  0  0  0  0  0  0  0
   12.3487   -4.9848   19.0692 C   0  0  0  0  0  0  0  0  0  0  0  0
   13.3926   -4.2629   18.4139 C   0  0  0  0  0  0  0  0  0  0  0  0
   14.3457   -4.0860   19.3804 C   0  0  0  0  0  0  0  0  0  0  0  0
   13.8467   -4.6643   20.5131 N   0  0  0  0  0  0  0  0  0  0  0  0
   12.6758   -5.3113   20.3342 N   0  0  0  0  0  0  0  0  0  0  0  0
    4.8545   -8.3449   22.1037 N   0  0  0  0  0  0  0  0  0  0  0  0
    4.4583  -10.2480   22.6869 C   0  0  0  0  0  0  0  0  0  0  0  0
    5.2534  -10.8925   22.3351 O   0  0  0  0  0  0  0  0  0  0  0  0
    2.9612  -11.4621   23.4346 C   0  0  0  0  0  0  0  0  0  0  0  0
    3.2579  -13.1832   23.9701 C   0  0  0  0  0  0  0  0  0  0  0  0
    3.1128  -14.2103   23.1628 N   0  0  0  0  0  0  0  0  0  0  0  0
    3.9992  -15.1738   23.5654 C   0  0  0  0  0  0  0  0  0  0  0  0
    4.5388  -14.9624   24.7793 C   0  0  0  0  0  0  0  0  0  0  0  0
    4.0115  -13.7818   25.0752 N   0  0  0  0  0  0  0  0  0  0  0  0
    7.0528   -9.7864   19.9097 C   0  0  0  0  0  0  0  0  0  0  0  0
    6.3505  -10.8111   18.9714 C   0  0  0  0  0  0  0  0  0  0  0  0
    6.4143  -11.3686   20.2431 C   0  0  0  0  0  0  0  0  0  0  0  0
    7.1835   -7.3094   23.3792 H   0  0  0  0  0  0  0  0  0  0  0  0
    5.8316   -6.6841   23.0621 H   0  0  0  0  0  0  0  0  0  0  0  0
    7.2610   -5.8418   22.4794 H   0  0  0  0  0  0  0  0  0  0  0  0
    7.0094   -5.5267   19.4698 H   0  0  0  0  0  0  0  0  0  0  0  0
    7.0108   -6.6459   18.2084 H   0  0  0  0  0  0  0  0  0  0  0  0
    9.9647   -6.3489   20.2831 H   0  0  0  0  0  0  0  0  0  0  0  0
   13.3868   -3.8862   17.4004 H   0  0  0  0  0  0  0  0  0  0  0  0
   15.2954   -3.5702   19.3836 H   0  0  0  0  0  0  0  0  0  0  0  0
   14.2614   -4.6702   21.4397 H   0  0  0  0  0  0  0  0  0  0  0  0
    4.1888   -7.7619   22.5004 H   0  0  0  0  0  0  0  0  0  0  0  0
    3.2546  -11.9853   22.4939 H   0  0  0  0  0  0  0  0  0  0  0  0
    1.9277  -11.7053   23.1722 H   0  0  0  0  0  0  0  0  0  0  0  0
    3.9827  -16.1711   23.1957 H   0  0  0  0  0  0  0  0  0  0  0  0
    5.1092  -15.6545   25.3502 H   0  0  0  0  0  0  0  0  0  0  0  0
    4.2378  -13.2773   25.9089 H   0  0  0  0  0  0  0  0  0  0  0  0
    7.9845   -9.7645   19.2353 H   0  0  0  0  0  0  0  0  0  0  0  0
    7.0201  -10.7299   18.1519 H   0  0  0  0  0  0  0  0  0  0  0  0
    5.7337  -11.6518   18.7329 H   0  0  0  0  0  0  0  0  0  0  0  0
    6.9934  -12.2720   20.3541 H   0  0  0  0  0  0  0  0  0  0  0  0
    5.4193  -11.6828   20.5245 H   0  0  0  0  0  0  0  0  0  0  0  0
  1  2  1  0
  2  3  1  0
  3  4  1  0
  4  5  1  0
  5  6  2  0
  5  7  1  0
  7  8  1  0
  8  9  2  0
  9 10  1  0
 10 11  1  0
  2 12  1  0
 12 13  1  0
 13 14  2  0
 13 15  1  0
 15 16  1  0
 16 17  2  0
 17 18  1  0
 18 19  2  0
 19 20  1  0
  2 21  1  0
 21 22  1  0
 22 23  1  0
 11  7  2  0
 20 16  1  0
 23 21  1  0
  1 24  1  0
  1 25  1  0
  1 26  1  0
  3 27  1  0
  3 28  1  0
  4 29  1  0
  8 30  1  0
  9 31  1  0
 10 32  1  0
 12 33  1  0
 15 34  1  0
 15 35  1  0
 18 36  1  0
 19 37  1  0
 20 38  1  0
 21 39  1  0
 22 40  1  0
 22 41  1  0
 23 42  1  0
 23 43  1  0
M  END
>  <Energy>  (787) 
1440.996644513483

>  <compound_id>  (787) 
10596

>  <target_id>  (787) 
1

>  <reference_id>  (787) 
81

>  <inspiration_ids>  (787) 
[116, 81]

>  <energy_score>  (787) 
1338.241639826119

>  <distance_score>  (787) 
6.267409394307936

>  <path>  (787) 
/opt/xchem-fragalysis-2/maxwin/BulkDock/SCRATCH/511021/C10596-P81/C10596-P81.minimised.mol

>  <scratch_subdir>  (787) 
/opt/xchem-fragalysis-2/maxwin/BulkDock/SCRATCH/511021/C10596-P81

>  <fragmenstein_runtime>  (787) 
24.527682065963745

>  <fragmenstein_outcome>  (787) 
too moved

>  <fragmenstein_mode>  (787) 
expansion

>  <fragmenstein_error>  (787) 


$$$$
C12662-P116
     RDKit          3D

 42 43  0  0  0  0  0  0  0  0999 V2000
    5.5109   -4.1471   25.0651 C   0  0  0  0  0  0  0  0  0  0  0  0
    5.0577   -2.7078   24.6522 C   0  0  0  0  0  0  0  0  0  0  0  0
    4.8245   -2.1005   23.0832 C   0  0  0  0  0  0  0  0  0  0  0  0
    5.2627   -2.9707   21.4121 N   0  0  0  0  0  0  0  0  0  0  0  0
    6.5331   -3.3417   20.8244 C   0  0  0  0  0  0  0  0  0  0  0  0
    7.6331   -3.1280   21.1839 O   0  0  0  0  0  0  0  0  0  0  0  0
    6.3916   -4.5967   19.1449 C   0  0  0  0  0  0  0  0  0  0  0  0
    6.9534   -5.3004   17.2544 C   0  0  0  0  0  0  0  0  0  0  0  0
    8.0852   -4.1288   15.8137 C   0  0  0  0  0  0  0  0  0  0  0  0
    9.7117   -3.7091   15.2029 C   0  0  0  0  0  0  0  0  0  0  0  0
    9.8935   -2.4526   14.8149 N   0  0  0  0  0  0  0  0  0  0  0  0
    8.6620   -1.9891   14.6652 N   0  0  0  0  0  0  0  0  0  0  0  0
    7.6550   -2.8074   15.1069 C   0  0  0  0  0  0  0  0  0  0  0  0
    5.3696   -1.6906   25.7738 C   0  0  0  0  0  0  0  0  0  0  0  0
    4.6758   -2.1721   26.9706 N   0  0  0  0  0  0  0  0  0  0  0  0
    3.4417   -1.7691   27.5639 C   0  0  0  0  0  0  0  0  0  0  0  0
    2.6968   -0.8811   27.2827 O   0  0  0  0  0  0  0  0  0  0  0  0
    3.0290   -2.6924   28.6251 C   0  0  0  0  0  0  0  0  0  0  0  0
    1.7313   -2.9559   29.0388 C   0  0  0  0  0  0  0  0  0  0  0  0
    1.6911   -3.9097   30.0224 N   0  0  0  0  0  0  0  0  0  0  0  0
    2.9442   -4.2010   30.2621 C   0  0  0  0  0  0  0  0  0  0  0  0
    3.7859   -3.5204   29.4274 N   0  0  0  0  0  0  0  0  0  0  0  0
    5.9414   -4.7480   24.2643 H   0  0  0  0  0  0  0  0  0  0  0  0
    4.6541   -4.7143   25.4486 H   0  0  0  0  0  0  0  0  0  0  0  0
    6.2309   -4.1292   25.8921 H   0  0  0  0  0  0  0  0  0  0  0  0
    4.0071   -2.8804   24.8716 H   0  0  0  0  0  0  0  0  0  0  0  0
    4.7962   -0.9878   23.0205 H   0  0  0  0  0  0  0  0  0  0  0  0
    3.7266   -2.1902   23.0401 H   0  0  0  0  0  0  0  0  0  0  0  0
    4.5197   -3.3942   20.8784 H   0  0  0  0  0  0  0  0  0  0  0  0
    6.7171   -5.5004   19.6001 H   0  0  0  0  0  0  0  0  0  0  0  0
    5.2995   -4.7381   19.0758 H   0  0  0  0  0  0  0  0  0  0  0  0
    7.0349   -6.3635   17.2995 H   0  0  0  0  0  0  0  0  0  0  0  0
    5.9417   -5.4426   16.7606 H   0  0  0  0  0  0  0  0  0  0  0  0
   10.6410   -4.2509   15.3911 H   0  0  0  0  0  0  0  0  0  0  0  0
    8.5604   -1.1415   14.1075 H   0  0  0  0  0  0  0  0  0  0  0  0
    6.6606   -2.4687   14.8476 H   0  0  0  0  0  0  0  0  0  0  0  0
    4.9798   -0.6991   25.5268 H   0  0  0  0  0  0  0  0  0  0  0  0
    6.4381   -1.6338   25.9950 H   0  0  0  0  0  0  0  0  0  0  0  0
    4.9937   -3.0178   27.4166 H   0  0  0  0  0  0  0  0  0  0  0  0
    0.8243   -2.5020   28.6547 H   0  0  0  0  0  0  0  0  0  0  0  0
    3.2993   -4.8753   31.0297 H   0  0  0  0  0  0  0  0  0  0  0  0
    4.7948   -3.5478   29.4687 H   0  0  0  0  0  0  0  0  0  0  0  0
  1  2  1  0
  2  3  1  0
  3  4  1  0
  4  5  1  0
  5  6  2  0
  5  7  1  0
  7  8  1  0
  8  9  1  0
  9 10  1  0
 10 11  2  0
 11 12  1  0
 12 13  1  0
  2 14  1  0
 14 15  1  0
 15 16  1  0
 16 17  2  0
 16 18  1  0
 18 19  2  0
 19 20  1  0
 20 21  2  0
 21 22  1  0
 13  9  2  0
 22 18  1  0
  1 23  1  0
  1 24  1  0
  1 25  1  0
  2 26  1  0
  3 27  1  0
  3 28  1  0
  4 29  1  0
  7 30  1  0
  7 31  1  0
  8 32  1  0
  8 33  1  0
 10 34  1  0
 12 35  1  0
 13 36  1  0
 14 37  1  0
 14 38  1  0
 15 39  1  0
 19 40  1  0
 21 41  1  0
 22 42  1  0
M  END
>  <Energy>  (788) 
470.65946877529007

>  <compound_id>  (788) 
12662

>  <target_id>  (788) 
1

>  <reference_id>  (788) 
116

>  <inspiration_ids>  (788) 
[116, 81]

>  <energy_score>  (788) 
499.74298381390986

>  <distance_score>  (788) 
8.061874602553704

>  <path>  (788) 
/opt/xchem-fragalysis-2/maxwin/BulkDock/SCRATCH/511021/C12662-P116/C12662-P116.minimised.mol

>  <scratch_subdir>  (788) 
/opt/xchem-fragalysis-2/maxwin/BulkDock/SCRATCH/511021/C12662-P116

>  <fragmenstein_runtime>  (788) 
22.453509092330933

>  <fragmenstein_outcome>  (788) 
too moved

>  <fragmenstein_mode>  (788) 
expansion

>  <fragmenstein_error>  (788) 


$$$$
C12662-P81
     RDKit          3D

 42 43  0  0  0  0  0  0  0  0999 V2000
    0.0141   -9.2121   21.6494 C   0  0  0  0  0  0  0  0  0  0  0  0
    0.1235   -7.8130   22.3565 C   0  0  0  0  0  0  0  0  0  0  0  0
    1.5033   -6.6771   21.1098 C   0  0  0  0  0  0  0  0  0  0  0  0
    2.7757   -5.8771   19.6472 N   0  0  0  0  0  0  0  0  0  0  0  0
    4.5136   -6.4913   18.8313 C   0  0  0  0  0  0  0  0  0  0  0  0
    5.2481   -7.4676   19.1162 O   0  0  0  0  0  0  0  0  0  0  0  0
    5.1724   -5.6410   17.2723 C   0  0  0  0  0  0  0  0  0  0  0  0
    6.8201   -5.6925   16.1231 C   0  0  0  0  0  0  0  0  0  0  0  0
    7.5022   -3.7510   15.6373 C   0  0  0  0  0  0  0  0  0  0  0  0
    8.8461   -3.2178   15.0144 C   0  0  0  0  0  0  0  0  0  0  0  0
    8.8802   -1.8805   15.0064 N   0  0  0  0  0  0  0  0  0  0  0  0
    7.6050   -1.6100   14.7562 N   0  0  0  0  0  0  0  0  0  0  0  0
    6.7799   -2.6695   15.0252 C   0  0  0  0  0  0  0  0  0  0  0  0
   -1.3494   -7.8273   23.9724 C   0  0  0  0  0  0  0  0  0  0  0  0
   -2.3655   -9.5614   24.4325 N   0  0  0  0  0  0  0  0  0  0  0  0
   -2.2647  -10.7810   26.0432 C   0  0  0  0  0  0  0  0  0  0  0  0
   -1.6020  -10.5040   27.1119 O   0  0  0  0  0  0  0  0  0  0  0  0
   -2.8945  -11.9282   25.6741 C   0  0  0  0  0  0  0  0  0  0  0  0
   -2.2136  -13.1747   25.3191 C   0  0  0  0  0  0  0  0  0  0  0  0
   -2.7543  -14.0520   26.0557 N   0  0  0  0  0  0  0  0  0  0  0  0
   -3.4701  -12.9919   26.3354 C   0  0  0  0  0  0  0  0  0  0  0  0
   -3.8377  -12.2387   24.9091 N   0  0  0  0  0  0  0  0  0  0  0  0
    0.9422   -9.3828   21.1280 H   0  0  0  0  0  0  0  0  0  0  0  0
   -0.7876   -9.2498   20.8918 H   0  0  0  0  0  0  0  0  0  0  0  0
   -0.2473  -10.0458   22.2808 H   0  0  0  0  0  0  0  0  0  0  0  0
   -0.6701   -7.6940   21.6593 H   0  0  0  0  0  0  0  0  0  0  0  0
    1.0532   -7.2340   20.2597 H   0  0  0  0  0  0  0  0  0  0  0  0
    1.1047   -5.6706   21.3565 H   0  0  0  0  0  0  0  0  0  0  0  0
    2.4967   -5.0250   19.2420 H   0  0  0  0  0  0  0  0  0  0  0  0
    4.7045   -6.3611   16.6133 H   0  0  0  0  0  0  0  0  0  0  0  0
    4.5358   -4.7819   17.0194 H   0  0  0  0  0  0  0  0  0  0  0  0
    7.2474   -6.0669   17.0226 H   0  0  0  0  0  0  0  0  0  0  0  0
    6.7854   -6.5422   15.4651 H   0  0  0  0  0  0  0  0  0  0  0  0
    9.7926   -3.7493   14.9500 H   0  0  0  0  0  0  0  0  0  0  0  0
    7.3534   -0.6990   14.3719 H   0  0  0  0  0  0  0  0  0  0  0  0
    5.7383   -2.5653   14.7847 H   0  0  0  0  0  0  0  0  0  0  0  0
   -0.7132   -7.6922   24.8631 H   0  0  0  0  0  0  0  0  0  0  0  0
   -1.9533   -6.9263   23.9533 H   0  0  0  0  0  0  0  0  0  0  0  0
   -2.9979   -9.9231   23.7842 H   0  0  0  0  0  0  0  0  0  0  0  0
   -1.2542  -13.5158   25.0237 H   0  0  0  0  0  0  0  0  0  0  0  0
   -4.0984  -12.5583   27.2079 H   0  0  0  0  0  0  0  0  0  0  0  0
   -4.3010  -12.7091   24.1430 H   0  0  0  0  0  0  0  0  0  0  0  0
  1  2  1  0
  2  3  1  0
  3  4  1  0
  4  5  1  0
  5  6  2  0
  5  7  1  0
  7  8  1  0
  8  9  1  0
  9 10  1  0
 10 11  2  0
 11 12  1  0
 12 13  1  0
  2 14  1  0
 14 15  1  0
 15 16  1  0
 16 17  2  0
 16 18  1  0
 18 19  2  0
 19 20  1  0
 20 21  2  0
 21 22  1  0
 13  9  2  0
 22 18  1  0
  1 23  1  0
  1 24  1  0
  1 25  1  0
  2 26  1  0
  3 27  1  0
  3 28  1  0
  4 29  1  0
  7 30  1  0
  7 31  1  0
  8 32  1  0
  8 33  1  0
 10 34  1  0
 12 35  1  0
 13 36  1  0
 14 37  1  0
 14 38  1  0
 15 39  1  0
 19 40  1  0
 21 41  1  0
 22 42  1  0
M  END
>  <Energy>  (789) 
1273.6594133118972

>  <compound_id>  (789) 
12662

>  <target_id>  (789) 
1

>  <reference_id>  (789) 
81

>  <inspiration_ids>  (789) 
[116, 81]

>  <energy_score>  (789) 
1302.7429283505073

>  <distance_score>  (789) 
4.1656412728125005

>  <path>  (789) 
/opt/xchem-fragalysis-2/maxwin/BulkDock/SCRATCH/511021/C12662-P81/C12662-P81.minimised.mol

>  <scratch_subdir>  (789) 
/opt/xchem-fragalysis-2/maxwin/BulkDock/SCRATCH/511021/C12662-P81

>  <fragmenstein_runtime>  (789) 
19.870203256607056

>  <fragmenstein_outcome>  (789) 
too moved

>  <fragmenstein_mode>  (789) 
expansion

>  <fragmenstein_error>  (789) 


$$$$
C12663-P116
     RDKit          3D

 42 43  0  0  0  0  0  0  0  0999 V2000
    2.7623   -8.5440   22.5275 C   0  0  0  0  0  0  0  0  0  0  0  0
    4.2591   -9.0212   23.0062 C   0  0  0  0  0  0  0  0  0  0  0  0
    5.5345   -7.6661   22.0564 C   0  0  0  0  0  0  0  0  0  0  0  0
    6.8869   -6.9568   20.7647 N   0  0  0  0  0  0  0  0  0  0  0  0
    8.8419   -7.5016   20.2109 C   0  0  0  0  0  0  0  0  0  0  0  0
    9.5410   -8.5032   20.4811 O   0  0  0  0  0  0  0  0  0  0  0  0
    9.7886   -5.9568   19.2523 C   0  0  0  0  0  0  0  0  0  0  0  0
   11.1339   -5.0728   18.0546 C   0  0  0  0  0  0  0  0  0  0  0  0
   11.6994   -3.7984   17.2903 C   0  0  0  0  0  0  0  0  0  0  0  0
   11.4642   -3.3400   15.9586 C   0  0  0  0  0  0  0  0  0  0  0  0
   12.2486   -2.3196   15.6055 N   0  0  0  0  0  0  0  0  0  0  0  0
   13.1150   -2.2298   16.6188 N   0  0  0  0  0  0  0  0  0  0  0  0
   12.8252   -3.0688   17.6503 C   0  0  0  0  0  0  0  0  0  0  0  0
    3.7894  -11.0892   22.5277 C   0  0  0  0  0  0  0  0  0  0  0  0
    2.7539  -12.4196   23.7271 N   0  0  0  0  0  0  0  0  0  0  0  0
    2.0130  -12.4825   24.6324 C   0  0  0  0  0  0  0  0  0  0  0  0
    1.6603  -10.9689   24.8763 O   0  0  0  0  0  0  0  0  0  0  0  0
    1.3792  -13.3018   25.7315 C   0  0  0  0  0  0  0  0  0  0  0  0
    0.2156  -12.8333   26.4849 C   0  0  0  0  0  0  0  0  0  0  0  0
    0.0595  -13.2374   27.7755 N   0  0  0  0  0  0  0  0  0  0  0  0
    1.2109  -13.7463   28.0247 C   0  0  0  0  0  0  0  0  0  0  0  0
    1.6851  -14.2103   29.5748 Cl  0  0  0  0  0  0  0  0  0  0  0  0
    2.0431  -13.6949   26.9477 N   0  0  0  0  0  0  0  0  0  0  0  0
    1.6985   -8.6245   22.0498 H   0  0  0  0  0  0  0  0  0  0  0  0
    2.3176   -7.9251   23.3493 H   0  0  0  0  0  0  0  0  0  0  0  0
    2.4031   -9.3556   21.8798 H   0  0  0  0  0  0  0  0  0  0  0  0
    4.7439   -8.6772   23.9745 H   0  0  0  0  0  0  0  0  0  0  0  0
    6.2941   -7.3859   22.8916 H   0  0  0  0  0  0  0  0  0  0  0  0
    5.1393   -6.8495   22.6906 H   0  0  0  0  0  0  0  0  0  0  0  0
    6.6866   -6.0278   20.4229 H   0  0  0  0  0  0  0  0  0  0  0  0
    9.3838   -5.1580   19.8943 H   0  0  0  0  0  0  0  0  0  0  0  0
   10.5598   -5.8711   20.1276 H   0  0  0  0  0  0  0  0  0  0  0  0
   12.0161   -5.0943   18.7573 H   0  0  0  0  0  0  0  0  0  0  0  0
   11.1748   -5.6272   17.0924 H   0  0  0  0  0  0  0  0  0  0  0  0
   10.7538   -3.7076   15.2304 H   0  0  0  0  0  0  0  0  0  0  0  0
   13.8867   -1.5763   16.5359 H   0  0  0  0  0  0  0  0  0  0  0  0
   13.4609   -3.1264   18.5226 H   0  0  0  0  0  0  0  0  0  0  0  0
    4.8682  -11.2861   22.8850 H   0  0  0  0  0  0  0  0  0  0  0  0
    4.1654  -11.6162   21.6645 H   0  0  0  0  0  0  0  0  0  0  0  0
    3.3081  -12.7706   23.0077 H   0  0  0  0  0  0  0  0  0  0  0  0
   -0.6439  -12.3255   26.1265 H   0  0  0  0  0  0  0  0  0  0  0  0
    3.0301  -13.5587   27.0143 H   0  0  0  0  0  0  0  0  0  0  0  0
  1  2  1  0
  2  3  1  0
  3  4  1  0
  4  5  1  0
  5  6  2  0
  5  7  1  0
  7  8  1  0
  8  9  1  0
  9 10  1  0
 10 11  2  0
 11 12  1  0
 12 13  1  0
  2 14  1  0
 14 15  1  0
 15 16  1  0
 16 17  2  0
 16 18  1  0
 18 19  2  0
 19 20  1  0
 20 21  2  0
 21 22  1  0
 21 23  1  0
 13  9  2  0
 23 18  1  0
  1 24  1  0
  1 25  1  0
  1 26  1  0
  2 27  1  0
  3 28  1  0
  3 29  1  0
  4 30  1  0
  7 31  1  0
  7 32  1  0
  8 33  1  0
  8 34  1  0
 10 35  1  0
 12 36  1  0
 13 37  1  0
 14 38  1  0
 14 39  1  0
 15 40  1  0
 19 41  1  0
 23 42  1  0
M  END
>  <Energy>  (790) 
1138.1831861978214

>  <compound_id>  (790) 
12663

>  <target_id>  (790) 
1

>  <reference_id>  (790) 
116

>  <inspiration_ids>  (790) 
[116, 81]

>  <energy_score>  (790) 
1160.1156858499155

>  <distance_score>  (790) 
3.2582275281685287

>  <path>  (790) 
/opt/xchem-fragalysis-2/maxwin/BulkDock/SCRATCH/511021/C12663-P116/C12663-P116.minimised.mol

>  <scratch_subdir>  (790) 
/opt/xchem-fragalysis-2/maxwin/BulkDock/SCRATCH/511021/C12663-P116

>  <fragmenstein_runtime>  (790) 
19.394633054733276

>  <fragmenstein_outcome>  (790) 
too moved

>  <fragmenstein_mode>  (790) 
expansion

>  <fragmenstein_error>  (790) 


$$$$
C12663-P81
     RDKit          3D

 42 43  0  0  0  0  0  0  0  0999 V2000
    9.4246   -9.2304   24.7775 C   0  0  0  0  0  0  0  0  0  0  0  0
    8.3120   -8.1405   24.8594 C   0  0  0  0  0  0  0  0  0  0  0  0
    7.1320   -7.6442   23.3859 C   0  0  0  0  0  0  0  0  0  0  0  0
    6.9965   -6.8866   21.5279 N   0  0  0  0  0  0  0  0  0  0  0  0
    7.5827   -7.4922   19.7140 C   0  0  0  0  0  0  0  0  0  0  0  0
    8.2216   -8.8254   19.1488 O   0  0  0  0  0  0  0  0  0  0  0  0
    7.4672   -6.3935   18.8830 C   0  0  0  0  0  0  0  0  0  0  0  0
    9.6600   -6.0246   19.2606 C   0  0  0  0  0  0  0  0  0  0  0  0
   11.1233   -5.0994   18.2255 C   0  0  0  0  0  0  0  0  0  0  0  0
   11.4644   -4.4534   16.9098 C   0  0  0  0  0  0  0  0  0  0  0  0
   12.6714   -3.8796   16.8465 N   0  0  0  0  0  0  0  0  0  0  0  0
   13.2190   -4.1148   18.0355 N   0  0  0  0  0  0  0  0  0  0  0  0
   12.4480   -4.8592   18.8702 C   0  0  0  0  0  0  0  0  0  0  0  0
    7.3655   -8.5611   26.0463 C   0  0  0  0  0  0  0  0  0  0  0  0
    7.2904   -9.8445   26.6784 N   0  0  0  0  0  0  0  0  0  0  0  0
    6.7702  -10.2301   27.9499 C   0  0  0  0  0  0  0  0  0  0  0  0
    6.3374   -9.5719   28.8435 O   0  0  0  0  0  0  0  0  0  0  0  0
    6.6763  -11.6697   28.1195 C   0  0  0  0  0  0  0  0  0  0  0  0
    6.6634  -12.3758   29.3138 C   0  0  0  0  0  0  0  0  0  0  0  0
    6.3527  -13.6980   29.1273 N   0  0  0  0  0  0  0  0  0  0  0  0
    6.1416  -13.7974   27.8466 C   0  0  0  0  0  0  0  0  0  0  0  0
    5.6299  -15.1599   26.9856 Cl  0  0  0  0  0  0  0  0  0  0  0  0
    6.3516  -12.6284   27.1853 N   0  0  0  0  0  0  0  0  0  0  0  0
    9.9650   -9.2629   25.7321 H   0  0  0  0  0  0  0  0  0  0  0  0
    9.0124  -10.2284   24.6200 H   0  0  0  0  0  0  0  0  0  0  0  0
   10.1810   -9.0222   24.0142 H   0  0  0  0  0  0  0  0  0  0  0  0
    8.9002   -7.2432   25.1026 H   0  0  0  0  0  0  0  0  0  0  0  0
    7.5100   -8.7541   23.5342 H   0  0  0  0  0  0  0  0  0  0  0  0
    7.4146   -6.6301   23.6040 H   0  0  0  0  0  0  0  0  0  0  0  0
    6.7415   -5.9922   21.4969 H   0  0  0  0  0  0  0  0  0  0  0  0
    7.0467   -6.4876   17.8770 H   0  0  0  0  0  0  0  0  0  0  0  0
    6.9310   -5.5224   19.3217 H   0  0  0  0  0  0  0  0  0  0  0  0
   10.1842   -6.3083   20.2019 H   0  0  0  0  0  0  0  0  0  0  0  0
    9.4964   -5.1112   19.8821 H   0  0  0  0  0  0  0  0  0  0  0  0
   10.8807   -4.3128   16.0152 H   0  0  0  0  0  0  0  0  0  0  0  0
   14.1398   -3.7321   18.2202 H   0  0  0  0  0  0  0  0  0  0  0  0
   12.7667   -5.1000   19.8752 H   0  0  0  0  0  0  0  0  0  0  0  0
    6.3370   -8.4147   25.7084 H   0  0  0  0  0  0  0  0  0  0  0  0
    7.5432   -7.8677   26.8781 H   0  0  0  0  0  0  0  0  0  0  0  0
    7.6458  -10.6655   26.2054 H   0  0  0  0  0  0  0  0  0  0  0  0
    6.8224  -11.9763   30.3090 H   0  0  0  0  0  0  0  0  0  0  0  0
    6.1193  -12.4718   26.2188 H   0  0  0  0  0  0  0  0  0  0  0  0
  1  2  1  0
  2  3  1  0
  3  4  1  0
  4  5  1  0
  5  6  2  0
  5  7  1  0
  7  8  1  0
  8  9  1  0
  9 10  1  0
 10 11  2  0
 11 12  1  0
 12 13  1  0
  2 14  1  0
 14 15  1  0
 15 16  1  0
 16 17  2  0
 16 18  1  0
 18 19  2  0
 19 20  1  0
 20 21  2  0
 21 22  1  0
 21 23  1  0
 13  9  2  0
 23 18  1  0
  1 24  1  0
  1 25  1  0
  1 26  1  0
  2 27  1  0
  3 28  1  0
  3 29  1  0
  4 30  1  0
  7 31  1  0
  7 32  1  0
  8 33  1  0
  8 34  1  0
 10 35  1  0
 12 36  1  0
 13 37  1  0
 14 38  1  0
 14 39  1  0
 15 40  1  0
 19 41  1  0
 23 42  1  0
M  END
>  <Energy>  (791) 
657.89250901947514

>  <compound_id>  (791) 
12663

>  <target_id>  (791) 
1

>  <reference_id>  (791) 
81

>  <inspiration_ids>  (791) 
[116, 81]

>  <energy_score>  (791) 
679.825008671563

>  <distance_score>  (791) 
6.302857844089968

>  <path>  (791) 
/opt/xchem-fragalysis-2/maxwin/BulkDock/SCRATCH/511021/C12663-P81/C12663-P81.minimised.mol

>  <scratch_subdir>  (791) 
/opt/xchem-fragalysis-2/maxwin/BulkDock/SCRATCH/511021/C12663-P81

>  <fragmenstein_runtime>  (791) 
25.82221007347107

>  <fragmenstein_outcome>  (791) 
too moved

>  <fragmenstein_mode>  (791) 
expansion

>  <fragmenstein_error>  (791) 


$$$$
C12664-P116
     RDKit          3D

 43 44  0  0  0  0  0  0  0  0999 V2000
    5.5829   -7.0848   25.1492 C   0  0  0  0  0  0  0  0  0  0  0  0
    6.6344   -7.5598   24.1884 C   0  0  0  0  0  0  0  0  0  0  0  0
    6.0285   -7.4757   22.3836 C   0  0  0  0  0  0  0  0  0  0  0  0
    6.9870   -6.9975   20.9799 N   0  0  0  0  0  0  0  0  0  0  0  0
    8.9261   -7.5214   20.3533 C   0  0  0  0  0  0  0  0  0  0  0  0
    9.7237   -8.3983   20.7619 O   0  0  0  0  0  0  0  0  0  0  0  0
    9.4715   -6.2473   19.1476 C   0  0  0  0  0  0  0  0  0  0  0  0
   10.9106   -5.2187   18.1864 C   0  0  0  0  0  0  0  0  0  0  0  0
   11.5674   -3.9904   17.2956 C   0  0  0  0  0  0  0  0  0  0  0  0
   12.7298   -3.2521   17.6885 C   0  0  0  0  0  0  0  0  0  0  0  0
   13.1147   -2.3419   16.7909 N   0  0  0  0  0  0  0  0  0  0  0  0
   12.3044   -2.5723   15.7504 N   0  0  0  0  0  0  0  0  0  0  0  0
   11.4025   -3.5696   15.9825 C   0  0  0  0  0  0  0  0  0  0  0  0
    7.5309   -8.6980   24.8268 C   0  0  0  0  0  0  0  0  0  0  0  0
    7.0559   -9.3895   25.9900 N   0  0  0  0  0  0  0  0  0  0  0  0
    7.3004   -9.1676   27.3746 C   0  0  0  0  0  0  0  0  0  0  0  0
    7.9017   -8.2992   27.9309 O   0  0  0  0  0  0  0  0  0  0  0  0
    6.6936  -10.1946   28.1988 C   0  0  0  0  0  0  0  0  0  0  0  0
    6.3524   -9.9921   29.5142 N   0  0  0  0  0  0  0  0  0  0  0  0
    5.6605  -11.0791   29.9575 C   0  0  0  0  0  0  0  0  0  0  0  0
    5.6705  -12.0301   29.0604 N   0  0  0  0  0  0  0  0  0  0  0  0
    6.3979  -11.5304   28.0191 C   0  0  0  0  0  0  0  0  0  0  0  0
    6.7759  -12.3522   26.9217 C   0  0  0  0  0  0  0  0  0  0  0  0
    7.1115  -12.8883   25.9502 N   0  0  0  0  0  0  0  0  0  0  0  0
    6.0334   -6.5836   26.0163 H   0  0  0  0  0  0  0  0  0  0  0  0
    4.9261   -6.3635   24.6685 H   0  0  0  0  0  0  0  0  0  0  0  0
    5.0395   -7.9328   25.5369 H   0  0  0  0  0  0  0  0  0  0  0  0
    7.2631   -6.7346   24.3288 H   0  0  0  0  0  0  0  0  0  0  0  0
    6.0524   -6.4285   22.6882 H   0  0  0  0  0  0  0  0  0  0  0  0
    4.9499   -7.5954   22.4583 H   0  0  0  0  0  0  0  0  0  0  0  0
    6.6832   -6.1905   20.4823 H   0  0  0  0  0  0  0  0  0  0  0  0
    9.7982   -5.6338   20.0235 H   0  0  0  0  0  0  0  0  0  0  0  0
    7.9342   -6.3939   19.0130 H   0  0  0  0  0  0  0  0  0  0  0  0
   11.0253   -5.7236   17.1932 H   0  0  0  0  0  0  0  0  0  0  0  0
   11.7342   -5.2113   18.9683 H   0  0  0  0  0  0  0  0  0  0  0  0
   13.2823   -3.3433   18.6157 H   0  0  0  0  0  0  0  0  0  0  0  0
   12.4349   -2.0323   14.9007 H   0  0  0  0  0  0  0  0  0  0  0  0
   10.7436   -3.8813   15.1879 H   0  0  0  0  0  0  0  0  0  0  0  0
    7.7989   -9.4988   24.1420 H   0  0  0  0  0  0  0  0  0  0  0  0
    8.4765   -8.2364   25.1437 H   0  0  0  0  0  0  0  0  0  0  0  0
    6.5795  -10.2691   25.8778 H   0  0  0  0  0  0  0  0  0  0  0  0
    6.5658   -9.1483   30.0290 H   0  0  0  0  0  0  0  0  0  0  0  0
    5.2000  -11.1320   30.9368 H   0  0  0  0  0  0  0  0  0  0  0  0
  1  2  1  0
  2  3  1  0
  3  4  1  0
  4  5  1  0
  5  6  2  0
  5  7  1  0
  7  8  1  0
  8  9  1  0
  9 10  1  0
 10 11  2  0
 11 12  1  0
 12 13  1  0
  2 14  1  0
 14 15  1  0
 15 16  1  0
 16 17  2  0
 16 18  1  0
 18 19  1  0
 19 20  1  0
 20 21  2  0
 21 22  1  0
 22 23  1  0
 23 24  3  0
 13  9  2  0
 22 18  2  0
  1 25  1  0
  1 26  1  0
  1 27  1  0
  2 28  1  0
  3 29  1  0
  3 30  1  0
  4 31  1  0
  7 32  1  0
  7 33  1  0
  8 34  1  0
  8 35  1  0
 10 36  1  0
 12 37  1  0
 13 38  1  0
 14 39  1  0
 14 40  1  0
 15 41  1  0
 19 42  1  0
 20 43  1  0
M  END
>  <Energy>  (792) 
541.08493464041283

>  <compound_id>  (792) 
12664

>  <target_id>  (792) 
1

>  <reference_id>  (792) 
116

>  <inspiration_ids>  (792) 
[116, 81]

>  <energy_score>  (792) 
540.6010755661118

>  <distance_score>  (792) 
6.036290130277933

>  <path>  (792) 
/opt/xchem-fragalysis-2/maxwin/BulkDock/SCRATCH/511021/C12664-P116/C12664-P116.minimised.mol

>  <scratch_subdir>  (792) 
/opt/xchem-fragalysis-2/maxwin/BulkDock/SCRATCH/511021/C12664-P116

>  <fragmenstein_runtime>  (792) 
20.652512550354004

>  <fragmenstein_outcome>  (792) 
too moved

>  <fragmenstein_mode>  (792) 
expansion

>  <fragmenstein_error>  (792) 


$$$$
C12664-P81
     RDKit          3D

 43 44  0  0  0  0  0  0  0  0999 V2000
    6.6114  -11.0684   22.7735 C   0  0  0  0  0  0  0  0  0  0  0  0
    6.2608  -11.3281   20.8066 C   0  0  0  0  0  0  0  0  0  0  0  0
    7.6851  -10.7573   19.5027 C   0  0  0  0  0  0  0  0  0  0  0  0
    8.4800   -9.0578   19.0932 N   0  0  0  0  0  0  0  0  0  0  0  0
    9.7539   -7.9889   20.0327 C   0  0  0  0  0  0  0  0  0  0  0  0
   10.3568   -8.3314   21.0372 O   0  0  0  0  0  0  0  0  0  0  0  0
   10.1691   -5.9846   19.6517 C   0  0  0  0  0  0  0  0  0  0  0  0
   11.8696   -5.5329   20.3066 C   0  0  0  0  0  0  0  0  0  0  0  0
   12.9219   -4.8376   19.3729 C   0  0  0  0  0  0  0  0  0  0  0  0
   14.2262   -4.4524   19.7846 C   0  0  0  0  0  0  0  0  0  0  0  0
   14.9297   -3.8437   18.8266 N   0  0  0  0  0  0  0  0  0  0  0  0
   14.0760   -3.7720   17.8017 N   0  0  0  0  0  0  0  0  0  0  0  0
   12.8796   -4.3661   18.0658 C   0  0  0  0  0  0  0  0  0  0  0  0
    4.7694  -12.1769   20.7344 C   0  0  0  0  0  0  0  0  0  0  0  0
    3.7164  -11.8181   22.2287 N   0  0  0  0  0  0  0  0  0  0  0  0
    3.0184  -12.7368   23.1825 C   0  0  0  0  0  0  0  0  0  0  0  0
    3.0373  -13.9390   23.2578 O   0  0  0  0  0  0  0  0  0  0  0  0
    2.0126  -12.0319   24.3745 C   0  0  0  0  0  0  0  0  0  0  0  0
    2.1485  -13.1453   25.1004 N   0  0  0  0  0  0  0  0  0  0  0  0
    1.0346  -13.6105   25.5343 C   0  0  0  0  0  0  0  0  0  0  0  0
    0.6275  -12.9551   26.4779 N   0  0  0  0  0  0  0  0  0  0  0  0
    1.1307  -11.8880   25.9517 C   0  0  0  0  0  0  0  0  0  0  0  0
    1.1128  -10.9638   27.1737 C   0  0  0  0  0  0  0  0  0  0  0  0
    1.1054  -10.1577   28.0061 N   0  0  0  0  0  0  0  0  0  0  0  0
    7.1539  -11.8831   23.2435 H   0  0  0  0  0  0  0  0  0  0  0  0
    7.2086  -10.3196   23.2968 H   0  0  0  0  0  0  0  0  0  0  0  0
    5.6670  -10.8839   23.2640 H   0  0  0  0  0  0  0  0  0  0  0  0
    6.7496  -12.3293   20.6969 H   0  0  0  0  0  0  0  0  0  0  0  0
    8.3816  -11.5794   19.5207 H   0  0  0  0  0  0  0  0  0  0  0  0
    6.9530  -10.7358   18.7104 H   0  0  0  0  0  0  0  0  0  0  0  0
    8.0879   -8.5591   18.4013 H   0  0  0  0  0  0  0  0  0  0  0  0
    9.5895   -5.2244   20.0863 H   0  0  0  0  0  0  0  0  0  0  0  0
   10.4211   -5.6954   18.6531 H   0  0  0  0  0  0  0  0  0  0  0  0
   12.3298   -6.4256   20.7502 H   0  0  0  0  0  0  0  0  0  0  0  0
   11.7554   -4.8020   21.1136 H   0  0  0  0  0  0  0  0  0  0  0  0
   14.6850   -4.5958   20.7555 H   0  0  0  0  0  0  0  0  0  0  0  0
   14.3815   -3.3153   16.9483 H   0  0  0  0  0  0  0  0  0  0  0  0
   12.1054   -4.3712   17.3126 H   0  0  0  0  0  0  0  0  0  0  0  0
    5.1235  -13.1943   20.7296 H   0  0  0  0  0  0  0  0  0  0  0  0
    4.2381  -12.4592   19.8334 H   0  0  0  0  0  0  0  0  0  0  0  0
    3.5466  -10.8766   22.5010 H   0  0  0  0  0  0  0  0  0  0  0  0
    3.0718  -13.4991   25.3423 H   0  0  0  0  0  0  0  0  0  0  0  0
    0.4813  -14.0801   24.6774 H   0  0  0  0  0  0  0  0  0  0  0  0
  1  2  1  0
  2  3  1  0
  3  4  1  0
  4  5  1  0
  5  6  2  0
  5  7  1  0
  7  8  1  0
  8  9  1  0
  9 10  1  0
 10 11  2  0
 11 12  1  0
 12 13  1  0
  2 14  1  0
 14 15  1  0
 15 16  1  0
 16 17  2  0
 16 18  1  0
 18 19  1  0
 19 20  1  0
 20 21  2  0
 21 22  1  0
 22 23  1  0
 23 24  3  0
 13  9  2  0
 22 18  2  0
  1 25  1  0
  1 26  1  0
  1 27  1  0
  2 28  1  0
  3 29  1  0
  3 30  1  0
  4 31  1  0
  7 32  1  0
  7 33  1  0
  8 34  1  0
  8 35  1  0
 10 36  1  0
 12 37  1  0
 13 38  1  0
 14 39  1  0
 14 40  1  0
 15 41  1  0
 19 42  1  0
 20 43  1  0
M  END
>  <Energy>  (793) 
734.34787463343082

>  <compound_id>  (793) 
12664

>  <target_id>  (793) 
1

>  <reference_id>  (793) 
81

>  <inspiration_ids>  (793) 
[116, 81]

>  <energy_score>  (793) 
733.864015559129

>  <distance_score>  (793) 
4.985742682093891

>  <path>  (793) 
/opt/xchem-fragalysis-2/maxwin/BulkDock/SCRATCH/511021/C12664-P81/C12664-P81.minimised.mol

>  <scratch_subdir>  (793) 
/opt/xchem-fragalysis-2/maxwin/BulkDock/SCRATCH/511021/C12664-P81

>  <fragmenstein_runtime>  (793) 
17.542499542236328

>  <fragmenstein_outcome>  (793) 
too moved

>  <fragmenstein_mode>  (793) 
expansion

>  <fragmenstein_error>  (793) 


$$$$
C12665-P116
     RDKit          3D

 42 43  0  0  0  0  0  0  0  0999 V2000
    5.2213  -11.0507   29.2791 C   0  0  0  0  0  0  0  0  0  0  0  0
    6.1888  -11.1818   28.1738 C   0  0  0  0  0  0  0  0  0  0  0  0
    6.8219  -10.1977   27.5726 N   0  0  0  0  0  0  0  0  0  0  0  0
    7.6788  -10.7835   26.6708 C   0  0  0  0  0  0  0  0  0  0  0  0
    8.7119  -10.0104   25.9022 C   0  0  0  0  0  0  0  0  0  0  0  0
    8.3824   -8.5258   25.6915 C   0  0  0  0  0  0  0  0  0  0  0  0
    8.9789   -7.6882   26.3060 O   0  0  0  0  0  0  0  0  0  0  0  0
    7.2923   -8.4094   24.7609 N   0  0  0  0  0  0  0  0  0  0  0  0
    6.5071   -7.2559   24.3465 C   0  0  0  0  0  0  0  0  0  0  0  0
    6.4970   -6.1478   25.4213 C   0  0  0  0  0  0  0  0  0  0  0  0
    6.5135   -6.6428   22.7688 C   0  0  0  0  0  0  0  0  0  0  0  0
    6.4889   -6.9719   20.9373 N   0  0  0  0  0  0  0  0  0  0  0  0
    6.6206   -5.8080   19.5170 C   0  0  0  0  0  0  0  0  0  0  0  0
    6.8518   -4.6522   19.5936 O   0  0  0  0  0  0  0  0  0  0  0  0
    6.2323   -6.4409   18.0244 C   0  0  0  0  0  0  0  0  0  0  0  0
    5.7360   -5.8024   16.5930 C   0  0  0  0  0  0  0  0  0  0  0  0
    4.5179   -5.6833   15.8729 C   0  0  0  0  0  0  0  0  0  0  0  0
    4.4216   -4.7466   14.9405 N   0  0  0  0  0  0  0  0  0  0  0  0
    5.6900   -4.5196   14.8147 N   0  0  0  0  0  0  0  0  0  0  0  0
    6.4256   -5.5818   15.3759 C   0  0  0  0  0  0  0  0  0  0  0  0
    7.4894  -12.1509   26.6792 C   0  0  0  0  0  0  0  0  0  0  0  0
    6.5454  -12.3889   27.6375 N   0  0  0  0  0  0  0  0  0  0  0  0
    4.4553  -11.8256   29.2435 H   0  0  0  0  0  0  0  0  0  0  0  0
    4.7056  -10.0961   29.1772 H   0  0  0  0  0  0  0  0  0  0  0  0
    5.7263  -11.0885   30.2477 H   0  0  0  0  0  0  0  0  0  0  0  0
    8.8748  -10.4733   24.9218 H   0  0  0  0  0  0  0  0  0  0  0  0
    9.6674  -10.0697   26.4377 H   0  0  0  0  0  0  0  0  0  0  0  0
    6.9811   -9.3405   24.4957 H   0  0  0  0  0  0  0  0  0  0  0  0
    5.4866   -7.6426   24.4852 H   0  0  0  0  0  0  0  0  0  0  0  0
    7.4841   -5.7178   25.6044 H   0  0  0  0  0  0  0  0  0  0  0  0
    6.1568   -6.5554   26.3811 H   0  0  0  0  0  0  0  0  0  0  0  0
    5.8104   -5.3415   25.1463 H   0  0  0  0  0  0  0  0  0  0  0  0
    5.4489   -6.8598   22.8040 H   0  0  0  0  0  0  0  0  0  0  0  0
    6.5679   -5.5619   22.8888 H   0  0  0  0  0  0  0  0  0  0  0  0
    6.2089   -7.8580   20.6111 H   0  0  0  0  0  0  0  0  0  0  0  0
    5.4610   -7.1813   18.2095 H   0  0  0  0  0  0  0  0  0  0  0  0
    7.1554   -6.7205   17.7602 H   0  0  0  0  0  0  0  0  0  0  0  0
    3.7454   -6.3930   15.7161 H   0  0  0  0  0  0  0  0  0  0  0  0
    5.9793   -3.6298   14.4123 H   0  0  0  0  0  0  0  0  0  0  0  0
    7.4333   -5.7242   15.0483 H   0  0  0  0  0  0  0  0  0  0  0  0
    7.9853  -12.9540   26.1523 H   0  0  0  0  0  0  0  0  0  0  0  0
    6.2246  -13.2950   27.9477 H   0  0  0  0  0  0  0  0  0  0  0  0
  1  2  1  0
  2  3  2  0
  3  4  1  0
  4  5  1  0
  5  6  1  0
  6  7  2  0
  6  8  1  0
  8  9  1  0
  9 10  1  0
  9 11  1  0
 11 12  1  0
 12 13  1  0
 13 14  2  0
 13 15  1  0
 15 16  1  0
 16 17  1  0
 17 18  2  0
 18 19  1  0
 19 20  1  0
  4 21  2  0
 21 22  1  0
 22  2  1  0
 20 16  2  0
  1 23  1  0
  1 24  1  0
  1 25  1  0
  5 26  1  0
  5 27  1  0
  8 28  1  0
  9 29  1  0
 10 30  1  0
 10 31  1  0
 10 32  1  0
 11 33  1  0
 11 34  1  0
 12 35  1  0
 15 36  1  0
 15 37  1  0
 17 38  1  0
 19 39  1  0
 20 40  1  0
 21 41  1  0
 22 42  1  0
M  END
>  <Energy>  (794) 
285.71950484923224

>  <compound_id>  (794) 
12665

>  <target_id>  (794) 
1

>  <reference_id>  (794) 
116

>  <inspiration_ids>  (794) 
[116, 81]

>  <energy_score>  (794) 
209.751529201273

>  <distance_score>  (794) 
8.629050295533222

>  <path>  (794) 
/opt/xchem-fragalysis-2/maxwin/BulkDock/SCRATCH/511021/C12665-P116/C12665-P116.minimised.mol

>  <scratch_subdir>  (794) 
/opt/xchem-fragalysis-2/maxwin/BulkDock/SCRATCH/511021/C12665-P116

>  <fragmenstein_runtime>  (794) 
31.156083822250366

>  <fragmenstein_outcome>  (794) 
too moved

>  <fragmenstein_mode>  (794) 
expansion

>  <fragmenstein_error>  (794) 


$$$$
C12665-P81
     RDKit          3D

 42 43  0  0  0  0  0  0  0  0999 V2000
    3.2638  -17.1310   27.1121 C   0  0  0  0  0  0  0  0  0  0  0  0
    4.0003  -15.9370   26.4327 C   0  0  0  0  0  0  0  0  0  0  0  0
    3.9449  -14.5806   26.6756 N   0  0  0  0  0  0  0  0  0  0  0  0
    4.6807  -13.9047   25.5896 C   0  0  0  0  0  0  0  0  0  0  0  0
    6.0170  -12.7366   26.1210 C   0  0  0  0  0  0  0  0  0  0  0  0
    6.8202  -11.6142   25.2778 C   0  0  0  0  0  0  0  0  0  0  0  0
    6.6521  -11.5426   24.1058 O   0  0  0  0  0  0  0  0  0  0  0  0
    7.6399  -10.8061   26.1624 N   0  0  0  0  0  0  0  0  0  0  0  0
    8.6022   -9.6972   25.8665 C   0  0  0  0  0  0  0  0  0  0  0  0
    9.8027  -10.1807   25.0733 C   0  0  0  0  0  0  0  0  0  0  0  0
    7.8718   -8.3892   25.3642 C   0  0  0  0  0  0  0  0  0  0  0  0
    8.4405   -7.3116   24.2521 N   0  0  0  0  0  0  0  0  0  0  0  0
    7.5611   -6.1604   23.0536 C   0  0  0  0  0  0  0  0  0  0  0  0
    6.4128   -6.1390   23.1622 O   0  0  0  0  0  0  0  0  0  0  0  0
    8.1596   -4.9783   21.3579 C   0  0  0  0  0  0  0  0  0  0  0  0
   10.1444   -5.3791   20.5245 C   0  0  0  0  0  0  0  0  0  0  0  0
   11.6655   -4.6664   21.3537 C   0  0  0  0  0  0  0  0  0  0  0  0
   12.8778   -4.9210   20.8988 N   0  0  0  0  0  0  0  0  0  0  0  0
   12.5346   -5.2620   19.7010 N   0  0  0  0  0  0  0  0  0  0  0  0
   11.1613   -5.5060   19.5597 C   0  0  0  0  0  0  0  0  0  0  0  0
    4.5673  -14.8772   24.6145 C   0  0  0  0  0  0  0  0  0  0  0  0
    4.6884  -16.0982   25.2215 N   0  0  0  0  0  0  0  0  0  0  0  0
    3.7348  -17.5130   28.0149 H   0  0  0  0  0  0  0  0  0  0  0  0
    3.1997  -17.9666   26.4051 H   0  0  0  0  0  0  0  0  0  0  0  0
    2.2462  -16.8693   27.4121 H   0  0  0  0  0  0  0  0  0  0  0  0
    6.8783  -13.3612   26.4059 H   0  0  0  0  0  0  0  0  0  0  0  0
    5.6788  -12.3024   27.0691 H   0  0  0  0  0  0  0  0  0  0  0  0
    7.6108  -11.2027   27.0957 H   0  0  0  0  0  0  0  0  0  0  0  0
    8.9964   -9.4423   26.8609 H   0  0  0  0  0  0  0  0  0  0  0  0
   10.5386  -10.6199   25.7584 H   0  0  0  0  0  0  0  0  0  0  0  0
   10.3063   -9.3706   24.5405 H   0  0  0  0  0  0  0  0  0  0  0  0
    9.5494  -10.9843   24.3824 H   0  0  0  0  0  0  0  0  0  0  0  0
    6.8382   -8.6063   25.0877 H   0  0  0  0  0  0  0  0  0  0  0  0
    7.8423   -7.8343   26.3171 H   0  0  0  0  0  0  0  0  0  0  0  0
    9.4225   -7.1970   24.1381 H   0  0  0  0  0  0  0  0  0  0  0  0
    7.9596   -3.8953   21.5126 H   0  0  0  0  0  0  0  0  0  0  0  0
    7.4892   -4.9942   20.4324 H   0  0  0  0  0  0  0  0  0  0  0  0
   11.6570   -4.1186   22.2963 H   0  0  0  0  0  0  0  0  0  0  0  0
   13.2231   -5.2125   18.9571 H   0  0  0  0  0  0  0  0  0  0  0  0
   10.9030   -5.3729   18.5172 H   0  0  0  0  0  0  0  0  0  0  0  0
    4.5652  -14.9919   23.5546 H   0  0  0  0  0  0  0  0  0  0  0  0
    4.7849  -16.9727   24.7233 H   0  0  0  0  0  0  0  0  0  0  0  0
  1  2  1  0
  2  3  2  0
  3  4  1  0
  4  5  1  0
  5  6  1  0
  6  7  2  0
  6  8  1  0
  8  9  1  0
  9 10  1  0
  9 11  1  0
 11 12  1  0
 12 13  1  0
 13 14  2  0
 13 15  1  0
 15 16  1  0
 16 17  1  0
 17 18  2  0
 18 19  1  0
 19 20  1  0
  4 21  2  0
 21 22  1  0
 22  2  1  0
 20 16  2  0
  1 23  1  0
  1 24  1  0
  1 25  1  0
  5 26  1  0
  5 27  1  0
  8 28  1  0
  9 29  1  0
 10 30  1  0
 10 31  1  0
 10 32  1  0
 11 33  1  0
 11 34  1  0
 12 35  1  0
 15 36  1  0
 15 37  1  0
 17 38  1  0
 19 39  1  0
 20 40  1  0
 21 41  1  0
 22 42  1  0
M  END
>  <Energy>  (795) 
605.31088553400798

>  <compound_id>  (795) 
12665

>  <target_id>  (795) 
1

>  <reference_id>  (795) 
81

>  <inspiration_ids>  (795) 
[116, 81]

>  <energy_score>  (795) 
529.3429098860469

>  <distance_score>  (795) 
6.723605502319355

>  <path>  (795) 
/opt/xchem-fragalysis-2/maxwin/BulkDock/SCRATCH/511021/C12665-P81/C12665-P81.minimised.mol

>  <scratch_subdir>  (795) 
/opt/xchem-fragalysis-2/maxwin/BulkDock/SCRATCH/511021/C12665-P81

>  <fragmenstein_runtime>  (795) 
22.95093846321106

>  <fragmenstein_outcome>  (795) 
too moved

>  <fragmenstein_mode>  (795) 
expansion

>  <fragmenstein_error>  (795) 


$$$$
C12666-P116
     RDKit          3D

 48 49  0  0  0  0  0  0  0  0999 V2000
    2.8839   -8.1753   17.6888 C   0  0  0  0  0  0  0  0  0  0  0  0
    4.3443   -6.8759   17.8241 C   0  0  0  0  0  0  0  0  0  0  0  0
    4.7164   -5.3528   17.8154 C   0  0  0  0  0  0  0  0  0  0  0  0
    5.3843   -7.5111   18.5503 C   0  0  0  0  0  0  0  0  0  0  0  0
    6.6112   -7.1697   19.6256 C   0  0  0  0  0  0  0  0  0  0  0  0
    5.9601   -7.2574   21.7296 C   0  0  0  0  0  0  0  0  0  0  0  0
    4.5760   -8.5320   22.4565 N   0  0  0  0  0  0  0  0  0  0  0  0
    4.6777  -10.5222   22.6996 C   0  0  0  0  0  0  0  0  0  0  0  0
    5.7098  -11.1074   22.4969 O   0  0  0  0  0  0  0  0  0  0  0  0
    3.1466  -11.9239   23.0946 C   0  0  0  0  0  0  0  0  0  0  0  0
    1.6270  -12.3791   24.2126 C   0  0  0  0  0  0  0  0  0  0  0  0
    1.1627  -12.7220   25.9226 C   0  0  0  0  0  0  0  0  0  0  0  0
    1.6983  -13.5987   26.7694 N   0  0  0  0  0  0  0  0  0  0  0  0
    1.0927  -13.4405   27.9921 C   0  0  0  0  0  0  0  0  0  0  0  0
    0.1451  -12.4587   27.9243 C   0  0  0  0  0  0  0  0  0  0  0  0
    0.1948  -12.0262   26.6324 N   0  0  0  0  0  0  0  0  0  0  0  0
    7.0035   -5.6725   18.3964 N   0  0  0  0  0  0  0  0  0  0  0  0
    7.2078   -5.6029   16.5067 C   0  0  0  0  0  0  0  0  0  0  0  0
    7.0190   -6.4844   15.6844 O   0  0  0  0  0  0  0  0  0  0  0  0
    8.0464   -3.9537   15.6268 C   0  0  0  0  0  0  0  0  0  0  0  0
    9.5656   -3.5568   15.0912 C   0  0  0  0  0  0  0  0  0  0  0  0
    9.7431   -2.2501   14.8803 N   0  0  0  0  0  0  0  0  0  0  0  0
    8.5001   -1.8129   14.6721 N   0  0  0  0  0  0  0  0  0  0  0  0
    7.5168   -2.7064   15.0053 C   0  0  0  0  0  0  0  0  0  0  0  0
    3.2304   -9.2069   17.7881 H   0  0  0  0  0  0  0  0  0  0  0  0
    2.4730   -8.1847   16.6900 H   0  0  0  0  0  0  0  0  0  0  0  0
    2.0601   -8.0639   18.3837 H   0  0  0  0  0  0  0  0  0  0  0  0
    4.4662   -6.7557   16.7366 H   0  0  0  0  0  0  0  0  0  0  0  0
    5.2934   -5.2425   16.9312 H   0  0  0  0  0  0  0  0  0  0  0  0
    5.0268   -5.0188   18.7987 H   0  0  0  0  0  0  0  0  0  0  0  0
    4.0809   -4.5027   17.5522 H   0  0  0  0  0  0  0  0  0  0  0  0
    5.9687   -7.2572   17.6968 H   0  0  0  0  0  0  0  0  0  0  0  0
    5.0467   -8.5368   18.5929 H   0  0  0  0  0  0  0  0  0  0  0  0
    6.7031   -6.1009   19.9707 H   0  0  0  0  0  0  0  0  0  0  0  0
    5.9999   -6.3936   22.4178 H   0  0  0  0  0  0  0  0  0  0  0  0
    6.6541   -7.3939   22.5414 H   0  0  0  0  0  0  0  0  0  0  0  0
    3.6859   -8.2123   22.7429 H   0  0  0  0  0  0  0  0  0  0  0  0
    3.6370  -12.3820   23.9222 H   0  0  0  0  0  0  0  0  0  0  0  0
    3.1531  -12.6492   22.2981 H   0  0  0  0  0  0  0  0  0  0  0  0
    2.3534  -13.0549   24.6187 H   0  0  0  0  0  0  0  0  0  0  0  0
    1.4210  -11.4122   24.6078 H   0  0  0  0  0  0  0  0  0  0  0  0
    1.3704  -14.0538   28.8389 H   0  0  0  0  0  0  0  0  0  0  0  0
   -0.5479  -12.0549   28.6468 H   0  0  0  0  0  0  0  0  0  0  0  0
   -0.4221  -11.3478   26.2106 H   0  0  0  0  0  0  0  0  0  0  0  0
    7.1480   -4.7368   18.8130 H   0  0  0  0  0  0  0  0  0  0  0  0
   10.4736   -4.1532   15.1084 H   0  0  0  0  0  0  0  0  0  0  0  0
    8.3916   -0.9441   14.1503 H   0  0  0  0  0  0  0  0  0  0  0  0
    6.5048   -2.4368   14.7276 H   0  0  0  0  0  0  0  0  0  0  0  0
  1  2  1  0
  2  3  1  0
  2  4  1  0
  4  5  1  0
  5  6  1  0
  6  7  1  0
  7  8  1  0
  8  9  2  0
  8 10  1  0
 10 11  1  0
 11 12  1  0
 12 13  2  0
 13 14  1  0
 14 15  2  0
 15 16  1  0
  5 17  1  0
 17 18  1  0
 18 19  2  0
 18 20  1  0
 20 21  1  0
 21 22  2  0
 22 23  1  0
 23 24  1  0
 16 12  1  0
 24 20  2  0
  1 25  1  0
  1 26  1  0
  1 27  1  0
  2 28  1  0
  3 29  1  0
  3 30  1  0
  3 31  1  0
  4 32  1  0
  4 33  1  0
  5 34  1  0
  6 35  1  0
  6 36  1  0
  7 37  1  0
 10 38  1  0
 10 39  1  0
 11 40  1  0
 11 41  1  0
 14 42  1  0
 15 43  1  0
 16 44  1  0
 17 45  1  0
 21 46  1  0
 23 47  1  0
 24 48  1  0
M  END
>  <Energy>  (796) 
1170.2880304089842

>  <compound_id>  (796) 
12666

>  <target_id>  (796) 
1

>  <reference_id>  (796) 
116

>  <inspiration_ids>  (796) 
[116, 81]

>  <energy_score>  (796) 
1145.2223339735378

>  <distance_score>  (796) 
3.2383868809783767

>  <path>  (796) 
/opt/xchem-fragalysis-2/maxwin/BulkDock/SCRATCH/511021/C12666-P116/C12666-P116.minimised.mol

>  <scratch_subdir>  (796) 
/opt/xchem-fragalysis-2/maxwin/BulkDock/SCRATCH/511021/C12666-P116

>  <fragmenstein_runtime>  (796) 
16.896432399749756

>  <fragmenstein_outcome>  (796) 
too moved

>  <fragmenstein_mode>  (796) 
expansion

>  <fragmenstein_error>  (796) 


$$$$
C12666-P81
     RDKit          3D

 48 49  0  0  0  0  0  0  0  0999 V2000
    5.2692   -6.0045   16.8422 C   0  0  0  0  0  0  0  0  0  0  0  0
    5.0499   -6.2737   18.2499 C   0  0  0  0  0  0  0  0  0  0  0  0
    4.3851   -5.1461   18.9598 C   0  0  0  0  0  0  0  0  0  0  0  0
    5.5487   -7.4053   18.9739 C   0  0  0  0  0  0  0  0  0  0  0  0
    6.5007   -7.4911   20.6113 C   0  0  0  0  0  0  0  0  0  0  0  0
    4.8753   -8.1004   22.1388 C   0  0  0  0  0  0  0  0  0  0  0  0
    4.5309   -9.9811   23.2190 N   0  0  0  0  0  0  0  0  0  0  0  0
    3.0179  -11.4463   23.2366 C   0  0  0  0  0  0  0  0  0  0  0  0
    2.1525  -11.4346   22.4902 O   0  0  0  0  0  0  0  0  0  0  0  0
    2.5763  -12.9653   24.6106 C   0  0  0  0  0  0  0  0  0  0  0  0
    0.9386  -13.4091   26.0294 C   0  0  0  0  0  0  0  0  0  0  0  0
   -0.5509  -14.4738   27.2317 C   0  0  0  0  0  0  0  0  0  0  0  0
   -1.8595  -15.3312   26.8288 N   0  0  0  0  0  0  0  0  0  0  0  0
   -2.3240  -14.8935   25.5929 C   0  0  0  0  0  0  0  0  0  0  0  0
   -2.8284  -13.9547   26.3169 C   0  0  0  0  0  0  0  0  0  0  0  0
   -2.1326  -14.5554   27.8297 N   0  0  0  0  0  0  0  0  0  0  0  0
    7.7168   -6.4401   19.2278 N   0  0  0  0  0  0  0  0  0  0  0  0
    9.7223   -5.8959   19.3487 C   0  0  0  0  0  0  0  0  0  0  0  0
   10.3340   -6.1036   20.3678 O   0  0  0  0  0  0  0  0  0  0  0  0
   10.9423   -5.0792   18.0453 C   0  0  0  0  0  0  0  0  0  0  0  0
   12.4365   -4.7621   18.6635 C   0  0  0  0  0  0  0  0  0  0  0  0
   13.2861   -4.1562   17.8447 N   0  0  0  0  0  0  0  0  0  0  0  0
   12.5869   -4.0519   16.7214 N   0  0  0  0  0  0  0  0  0  0  0  0
   11.2697   -4.4580   16.7857 C   0  0  0  0  0  0  0  0  0  0  0  0
    4.8919   -4.9999   16.7419 H   0  0  0  0  0  0  0  0  0  0  0  0
    6.2555   -6.2509   16.4494 H   0  0  0  0  0  0  0  0  0  0  0  0
    4.4913   -6.3776   16.1901 H   0  0  0  0  0  0  0  0  0  0  0  0
    4.4009   -7.0286   17.8814 H   0  0  0  0  0  0  0  0  0  0  0  0
    3.5244   -5.4039   19.5780 H   0  0  0  0  0  0  0  0  0  0  0  0
    3.9263   -4.5340   18.1656 H   0  0  0  0  0  0  0  0  0  0  0  0
    5.0559   -4.5405   19.5771 H   0  0  0  0  0  0  0  0  0  0  0  0
    6.2958   -7.2131   18.2665 H   0  0  0  0  0  0  0  0  0  0  0  0
    4.9989   -8.3463   18.7437 H   0  0  0  0  0  0  0  0  0  0  0  0
    6.8040   -6.7371   21.3651 H   0  0  0  0  0  0  0  0  0  0  0  0
    5.0655   -7.3715   23.0098 H   0  0  0  0  0  0  0  0  0  0  0  0
    4.9813   -7.7974   21.1469 H   0  0  0  0  0  0  0  0  0  0  0  0
    5.2626  -10.1980   23.8920 H   0  0  0  0  0  0  0  0  0  0  0  0
    3.4819  -13.5900   24.8186 H   0  0  0  0  0  0  0  0  0  0  0  0
    2.2973  -13.4634   23.7022 H   0  0  0  0  0  0  0  0  0  0  0  0
    1.7329  -13.8007   26.6779 H   0  0  0  0  0  0  0  0  0  0  0  0
    0.7485  -12.3965   26.4051 H   0  0  0  0  0  0  0  0  0  0  0  0
   -2.3656  -15.3298   24.6167 H   0  0  0  0  0  0  0  0  0  0  0  0
   -3.2714  -12.9697   26.2527 H   0  0  0  0  0  0  0  0  0  0  0  0
   -2.4666  -15.4730   28.0151 H   0  0  0  0  0  0  0  0  0  0  0  0
    7.3286   -6.1180   18.3329 H   0  0  0  0  0  0  0  0  0  0  0  0
   12.7078   -5.0004   19.6870 H   0  0  0  0  0  0  0  0  0  0  0  0
   13.0529   -3.6443   15.9195 H   0  0  0  0  0  0  0  0  0  0  0  0
   10.7201   -4.2058   15.8934 H   0  0  0  0  0  0  0  0  0  0  0  0
  1  2  1  0
  2  3  1  0
  2  4  1  0
  4  5  1  0
  5  6  1  0
  6  7  1  0
  7  8  1  0
  8  9  2  0
  8 10  1  0
 10 11  1  0
 11 12  1  0
 12 13  2  0
 13 14  1  0
 14 15  2  0
 15 16  1  0
  5 17  1  0
 17 18  1  0
 18 19  2  0
 18 20  1  0
 20 21  1  0
 21 22  2  0
 22 23  1  0
 23 24  1  0
 16 12  1  0
 24 20  2  0
  1 25  1  0
  1 26  1  0
  1 27  1  0
  2 28  1  0
  3 29  1  0
  3 30  1  0
  3 31  1  0
  4 32  1  0
  4 33  1  0
  5 34  1  0
  6 35  1  0
  6 36  1  0
  7 37  1  0
 10 38  1  0
 10 39  1  0
 11 40  1  0
 11 41  1  0
 14 42  1  0
 15 43  1  0
 16 44  1  0
 17 45  1  0
 21 46  1  0
 23 47  1  0
 24 48  1  0
M  END
>  <Energy>  (797) 
2073.7475497018222

>  <compound_id>  (797) 
12666

>  <target_id>  (797) 
1

>  <reference_id>  (797) 
81

>  <inspiration_ids>  (797) 
[116, 81]

>  <energy_score>  (797) 
2048.681853266423

>  <distance_score>  (797) 
4.0084935979911

>  <path>  (797) 
/opt/xchem-fragalysis-2/maxwin/BulkDock/SCRATCH/511021/C12666-P81/C12666-P81.minimised.mol

>  <scratch_subdir>  (797) 
/opt/xchem-fragalysis-2/maxwin/BulkDock/SCRATCH/511021/C12666-P81

>  <fragmenstein_runtime>  (797) 
31.357532739639282

>  <fragmenstein_outcome>  (797) 
too moved

>  <fragmenstein_mode>  (797) 
expansion

>  <fragmenstein_error>  (797) 


$$$$
C10597-P116
     RDKit          3D

 48 49  0  0  0  0  0  0  0  0999 V2000
    5.2631   -6.2270   17.3498 C   0  0  0  0  0  0  0  0  0  0  0  0
    6.0323   -5.6199   18.4154 C   0  0  0  0  0  0  0  0  0  0  0  0
    5.3494   -4.5808   19.1932 C   0  0  0  0  0  0  0  0  0  0  0  0
    6.7612   -6.4752   19.4120 C   0  0  0  0  0  0  0  0  0  0  0  0
    6.6773   -5.9051   21.2899 C   0  0  0  0  0  0  0  0  0  0  0  0
    5.3107   -6.7211   22.7746 C   0  0  0  0  0  0  0  0  0  0  0  0
    4.4370   -8.4438   22.8773 N   0  0  0  0  0  0  0  0  0  0  0  0
    2.7902   -9.0830   22.4095 C   0  0  0  0  0  0  0  0  0  0  0  0
    1.7899   -8.5561   22.0089 O   0  0  0  0  0  0  0  0  0  0  0  0
    3.2992  -11.1591   22.6309 C   0  0  0  0  0  0  0  0  0  0  0  0
    2.2304  -12.3351   23.7392 C   0  0  0  0  0  0  0  0  0  0  0  0
    1.4385  -12.4969   25.2859 C   0  0  0  0  0  0  0  0  0  0  0  0
    1.6548  -13.4818   26.1669 N   0  0  0  0  0  0  0  0  0  0  0  0
    1.0424  -13.2245   27.3759 C   0  0  0  0  0  0  0  0  0  0  0  0
    0.4210  -12.0205   27.3054 C   0  0  0  0  0  0  0  0  0  0  0  0
    0.7474  -11.5629   26.0550 N   0  0  0  0  0  0  0  0  0  0  0  0
    8.3326   -4.6869   20.8888 N   0  0  0  0  0  0  0  0  0  0  0  0
   10.2363   -5.1446   21.0305 C   0  0  0  0  0  0  0  0  0  0  0  0
   10.6011   -6.2555   21.2701 O   0  0  0  0  0  0  0  0  0  0  0  0
   11.5661   -4.1365   21.0350 C   0  0  0  0  0  0  0  0  0  0  0  0
   12.7759   -4.3250   20.2478 C   0  0  0  0  0  0  0  0  0  0  0  0
   13.7336   -3.5496   20.8486 C   0  0  0  0  0  0  0  0  0  0  0  0
   13.1502   -3.0828   21.9867 N   0  0  0  0  0  0  0  0  0  0  0  0
   11.9010   -3.5347   22.1879 N   0  0  0  0  0  0  0  0  0  0  0  0
    5.9612   -6.6039   16.6162 H   0  0  0  0  0  0  0  0  0  0  0  0
    4.6794   -5.4873   16.8182 H   0  0  0  0  0  0  0  0  0  0  0  0
    4.6541   -6.9648   17.8348 H   0  0  0  0  0  0  0  0  0  0  0  0
    6.7858   -5.2400   17.8123 H   0  0  0  0  0  0  0  0  0  0  0  0
    5.3074   -3.4932   19.2963 H   0  0  0  0  0  0  0  0  0  0  0  0
    4.3390   -4.8708   19.3739 H   0  0  0  0  0  0  0  0  0  0  0  0
    6.2054   -4.4314   19.7845 H   0  0  0  0  0  0  0  0  0  0  0  0
    6.5389   -7.5220   19.5101 H   0  0  0  0  0  0  0  0  0  0  0  0
    7.6310   -6.5452   18.9868 H   0  0  0  0  0  0  0  0  0  0  0  0
    6.9404   -5.2823   22.2006 H   0  0  0  0  0  0  0  0  0  0  0  0
    6.2124   -7.1272   23.2698 H   0  0  0  0  0  0  0  0  0  0  0  0
    5.1478   -6.1849   23.7363 H   0  0  0  0  0  0  0  0  0  0  0  0
    4.9757   -9.1659   23.2429 H   0  0  0  0  0  0  0  0  0  0  0  0
    4.4689  -11.1215   22.6051 H   0  0  0  0  0  0  0  0  0  0  0  0
    3.6221  -11.9963   21.9709 H   0  0  0  0  0  0  0  0  0  0  0  0
    2.8010  -13.2301   23.5813 H   0  0  0  0  0  0  0  0  0  0  0  0
    1.2567  -12.3229   23.2397 H   0  0  0  0  0  0  0  0  0  0  0  0
    1.0845  -13.9322   28.1927 H   0  0  0  0  0  0  0  0  0  0  0  0
   -0.1927  -11.4575   27.9915 H   0  0  0  0  0  0  0  0  0  0  0  0
    0.3366  -10.7419   25.6489 H   0  0  0  0  0  0  0  0  0  0  0  0
    8.2392   -3.7681   20.6115 H   0  0  0  0  0  0  0  0  0  0  0  0
   12.8840   -4.9385   19.3655 H   0  0  0  0  0  0  0  0  0  0  0  0
   14.7644   -3.3402   20.6048 H   0  0  0  0  0  0  0  0  0  0  0  0
   13.5468   -2.4777   22.6981 H   0  0  0  0  0  0  0  0  0  0  0  0
  1  2  1  0
  2  3  1  0
  2  4  1  0
  4  5  1  0
  5  6  1  0
  6  7  1  0
  7  8  1  0
  8  9  2  0
  8 10  1  0
 10 11  1  0
 11 12  1  0
 12 13  2  0
 13 14  1  0
 14 15  2  0
 15 16  1  0
  5 17  1  0
 17 18  1  0
 18 19  2  0
 18 20  1  0
 20 21  1  0
 21 22  2  0
 22 23  1  0
 23 24  1  0
 16 12  1  0
 24 20  2  0
  1 25  1  0
  1 26  1  0
  1 27  1  0
  2 28  1  0
  3 29  1  0
  3 30  1  0
  3 31  1  0
  4 32  1  0
  4 33  1  0
  5 34  1  0
  6 35  1  0
  6 36  1  0
  7 37  1  0
 10 38  1  0
 10 39  1  0
 11 40  1  0
 11 41  1  0
 14 42  1  0
 15 43  1  0
 16 44  1  0
 17 45  1  0
 21 46  1  0
 22 47  1  0
 23 48  1  0
M  END
>  <Energy>  (798) 
953.74661098908678

>  <compound_id>  (798) 
10597

>  <target_id>  (798) 
1

>  <reference_id>  (798) 
116

>  <inspiration_ids>  (798) 
[116, 81]

>  <energy_score>  (798) 
912.725009612928

>  <distance_score>  (798) 
5.1417511391412

>  <path>  (798) 
/opt/xchem-fragalysis-2/maxwin/BulkDock/SCRATCH/511021/C10597-P116/C10597-P116.minimised.mol

>  <scratch_subdir>  (798) 
/opt/xchem-fragalysis-2/maxwin/BulkDock/SCRATCH/511021/C10597-P116

>  <fragmenstein_runtime>  (798) 
15.760483980178833

>  <fragmenstein_outcome>  (798) 
too moved

>  <fragmenstein_mode>  (798) 
expansion

>  <fragmenstein_error>  (798) 


$$$$
C10597-P81
     RDKit          3D

 48 49  0  0  0  0  0  0  0  0999 V2000
    4.3806   -2.3900   25.2336 C   0  0  0  0  0  0  0  0  0  0  0  0
    5.6992   -2.4430   24.2341 C   0  0  0  0  0  0  0  0  0  0  0  0
    5.0908   -1.8605   23.0086 C   0  0  0  0  0  0  0  0  0  0  0  0
    6.8394   -3.9297   23.4891 C   0  0  0  0  0  0  0  0  0  0  0  0
    7.6759   -5.1988   22.1414 C   0  0  0  0  0  0  0  0  0  0  0  0
    7.5273   -6.5967   23.5430 C   0  0  0  0  0  0  0  0  0  0  0  0
    7.3674   -8.1413   23.9288 N   0  0  0  0  0  0  0  0  0  0  0  0
    6.9352   -8.7880   25.1435 C   0  0  0  0  0  0  0  0  0  0  0  0
    6.6740   -8.3353   26.2157 O   0  0  0  0  0  0  0  0  0  0  0  0
    6.7285  -10.5454   24.6021 C   0  0  0  0  0  0  0  0  0  0  0  0
    5.4718  -10.8179   23.1949 C   0  0  0  0  0  0  0  0  0  0  0  0
    3.7664  -11.5973   22.6781 C   0  0  0  0  0  0  0  0  0  0  0  0
    3.3920  -12.6721   22.0624 N   0  0  0  0  0  0  0  0  0  0  0  0
    3.0974  -13.6089   23.1988 C   0  0  0  0  0  0  0  0  0  0  0  0
    2.5108  -12.8751   24.1169 C   0  0  0  0  0  0  0  0  0  0  0  0
    2.5842  -11.7557   23.4456 N   0  0  0  0  0  0  0  0  0  0  0  0
    8.9905   -4.7839   20.5355 N   0  0  0  0  0  0  0  0  0  0  0  0
   10.7671   -5.4925   20.1300 C   0  0  0  0  0  0  0  0  0  0  0  0
   11.2818   -6.3787   20.7714 O   0  0  0  0  0  0  0  0  0  0  0  0
   12.0096   -4.8686   18.8811 C   0  0  0  0  0  0  0  0  0  0  0  0
   12.0458   -4.3597   17.4947 C   0  0  0  0  0  0  0  0  0  0  0  0
   13.3176   -3.8896   17.2838 C   0  0  0  0  0  0  0  0  0  0  0  0
   13.9787   -4.1033   18.4488 N   0  0  0  0  0  0  0  0  0  0  0  0
   13.2773   -4.7737   19.3720 N   0  0  0  0  0  0  0  0  0  0  0  0
    4.6245   -2.3845   26.3040 H   0  0  0  0  0  0  0  0  0  0  0  0
    3.6355   -3.1547   25.0320 H   0  0  0  0  0  0  0  0  0  0  0  0
    3.8926   -1.4110   25.1385 H   0  0  0  0  0  0  0  0  0  0  0  0
    6.2892   -1.9704   25.0212 H   0  0  0  0  0  0  0  0  0  0  0  0
    4.0456   -2.0619   23.1771 H   0  0  0  0  0  0  0  0  0  0  0  0
    5.4351   -2.4630   22.1757 H   0  0  0  0  0  0  0  0  0  0  0  0
    5.2304   -0.9367   22.4789 H   0  0  0  0  0  0  0  0  0  0  0  0
    7.4077   -3.8150   24.3584 H   0  0  0  0  0  0  0  0  0  0  0  0
    7.1057   -3.4109   22.6465 H   0  0  0  0  0  0  0  0  0  0  0  0
    8.2369   -5.1192   23.0084 H   0  0  0  0  0  0  0  0  0  0  0  0
    6.4518   -6.4285   23.6521 H   0  0  0  0  0  0  0  0  0  0  0  0
    8.3871   -6.5175   24.1952 H   0  0  0  0  0  0  0  0  0  0  0  0
    7.4131   -8.7975   23.2256 H   0  0  0  0  0  0  0  0  0  0  0  0
    7.6937  -10.8644   24.2145 H   0  0  0  0  0  0  0  0  0  0  0  0
    6.5423  -11.2093   25.4523 H   0  0  0  0  0  0  0  0  0  0  0  0
    6.0987  -10.8497   22.3213 H   0  0  0  0  0  0  0  0  0  0  0  0
    4.8230   -9.9542   23.2611 H   0  0  0  0  0  0  0  0  0  0  0  0
    3.2547  -14.6626   23.0788 H   0  0  0  0  0  0  0  0  0  0  0  0
    1.8531  -13.0135   24.9588 H   0  0  0  0  0  0  0  0  0  0  0  0
    1.6953  -11.4595   23.0812 H   0  0  0  0  0  0  0  0  0  0  0  0
    8.7395   -4.1513   19.8632 H   0  0  0  0  0  0  0  0  0  0  0  0
   11.2541   -4.3311   16.7665 H   0  0  0  0  0  0  0  0  0  0  0  0
   13.7902   -3.4201   16.4334 H   0  0  0  0  0  0  0  0  0  0  0  0
   14.9356   -3.8541   18.6769 H   0  0  0  0  0  0  0  0  0  0  0  0
  1  2  1  0
  2  3  1  0
  2  4  1  0
  4  5  1  0
  5  6  1  0
  6  7  1  0
  7  8  1  0
  8  9  2  0
  8 10  1  0
 10 11  1  0
 11 12  1  0
 12 13  2  0
 13 14  1  0
 14 15  2  0
 15 16  1  0
  5 17  1  0
 17 18  1  0
 18 19  2  0
 18 20  1  0
 20 21  1  0
 21 22  2  0
 22 23  1  0
 23 24  1  0
 16 12  1  0
 24 20  2  0
  1 25  1  0
  1 26  1  0
  1 27  1  0
  2 28  1  0
  3 29  1  0
  3 30  1  0
  3 31  1  0
  4 32  1  0
  4 33  1  0
  5 34  1  0
  6 35  1  0
  6 36  1  0
  7 37  1  0
 10 38  1  0
 10 39  1  0
 11 40  1  0
 11 41  1  0
 14 42  1  0
 15 43  1  0
 16 44  1  0
 17 45  1  0
 21 46  1  0
 22 47  1  0
 23 48  1  0
M  END
>  <Energy>  (799) 
971.32537864765857

>  <compound_id>  (799) 
10597

>  <target_id>  (799) 
1

>  <reference_id>  (799) 
81

>  <inspiration_ids>  (799) 
[116, 81]

>  <energy_score>  (799) 
930.303777271499

>  <distance_score>  (799) 
5.998395185454526

>  <path>  (799) 
/opt/xchem-fragalysis-2/maxwin/BulkDock/SCRATCH/511021/C10597-P81/C10597-P81.minimised.mol

>  <scratch_subdir>  (799) 
/opt/xchem-fragalysis-2/maxwin/BulkDock/SCRATCH/511021/C10597-P81

>  <fragmenstein_runtime>  (799) 
25.860624313354492

>  <fragmenstein_outcome>  (799) 
too moved

>  <fragmenstein_mode>  (799) 
expansion

>  <fragmenstein_error>  (799) 


$$$$
C10598-P116
     RDKit          3D

 51 52  0  0  0  0  0  0  0  0999 V2000
    5.6064  -12.3868   19.3883 C   0  0  0  0  0  0  0  0  0  0  0  0
    6.5495  -11.4857   20.1679 C   0  0  0  0  0  0  0  0  0  0  0  0
    7.2332  -12.5776   20.8608 C   0  0  0  0  0  0  0  0  0  0  0  0
    7.3251   -9.8772   19.5433 C   0  0  0  0  0  0  0  0  0  0  0  0
    7.0849   -7.7491   20.0885 C   0  0  0  0  0  0  0  0  0  0  0  0
    6.0074   -7.2932   21.9209 C   0  0  0  0  0  0  0  0  0  0  0  0
    4.5708   -8.5487   22.5277 N   0  0  0  0  0  0  0  0  0  0  0  0
    4.6751  -10.5145   22.8019 C   0  0  0  0  0  0  0  0  0  0  0  0
    5.7098  -11.1165   22.7081 O   0  0  0  0  0  0  0  0  0  0  0  0
    3.0883  -11.9010   23.1037 C   0  0  0  0  0  0  0  0  0  0  0  0
    1.4673  -12.1895   24.1594 C   0  0  0  0  0  0  0  0  0  0  0  0
    0.9541  -11.9255   25.8479 C   0  0  0  0  0  0  0  0  0  0  0  0
    0.9251  -10.7844   26.5815 N   0  0  0  0  0  0  0  0  0  0  0  0
    0.8832  -11.1856   27.9170 C   0  0  0  0  0  0  0  0  0  0  0  0
    0.7467  -12.5476   27.9819 C   0  0  0  0  0  0  0  0  0  0  0  0
    0.2222  -12.7939   26.7142 N   0  0  0  0  0  0  0  0  0  0  0  0
   -1.2561  -12.8574   26.7435 C   0  0  0  0  0  0  0  0  0  0  0  0
    9.1775   -7.7148   20.2692 N   0  0  0  0  0  0  0  0  0  0  0  0
   10.2982   -6.3916   20.7786 C   0  0  0  0  0  0  0  0  0  0  0  0
   10.0413   -5.2407   21.0204 O   0  0  0  0  0  0  0  0  0  0  0  0
   11.7522   -6.6693   21.0932 C   0  0  0  0  0  0  0  0  0  0  0  0
   12.2618   -7.6669   21.9651 C   0  0  0  0  0  0  0  0  0  0  0  0
   13.5847   -7.3328   22.1522 C   0  0  0  0  0  0  0  0  0  0  0  0
   13.7987   -6.1879   21.4416 N   0  0  0  0  0  0  0  0  0  0  0  0
   12.7009   -5.7420   20.8354 N   0  0  0  0  0  0  0  0  0  0  0  0
    4.6720  -12.5978   19.9052 H   0  0  0  0  0  0  0  0  0  0  0  0
    5.5819  -11.9121   18.4577 H   0  0  0  0  0  0  0  0  0  0  0  0
    5.8062  -13.4313   19.2176 H   0  0  0  0  0  0  0  0  0  0  0  0
    5.8119  -11.1994   20.8353 H   0  0  0  0  0  0  0  0  0  0  0  0
    7.3901  -12.3839   21.8727 H   0  0  0  0  0  0  0  0  0  0  0  0
    6.6183  -13.4450   20.8364 H   0  0  0  0  0  0  0  0  0  0  0  0
    8.1197  -12.9911   20.4845 H   0  0  0  0  0  0  0  0  0  0  0  0
    6.7834  -10.3912   18.6896 H   0  0  0  0  0  0  0  0  0  0  0  0
    8.2828   -9.8309   18.9060 H   0  0  0  0  0  0  0  0  0  0  0  0
    6.8811   -7.0835   19.2326 H   0  0  0  0  0  0  0  0  0  0  0  0
    6.6052   -7.4397   22.8537 H   0  0  0  0  0  0  0  0  0  0  0  0
    6.1273   -6.3390   22.4412 H   0  0  0  0  0  0  0  0  0  0  0  0
    3.6523   -8.2336   22.7285 H   0  0  0  0  0  0  0  0  0  0  0  0
    3.4490  -12.5059   23.9289 H   0  0  0  0  0  0  0  0  0  0  0  0
    3.1110  -12.6182   22.2983 H   0  0  0  0  0  0  0  0  0  0  0  0
    0.6253  -11.9784   23.4975 H   0  0  0  0  0  0  0  0  0  0  0  0
    1.2734  -13.2178   24.1361 H   0  0  0  0  0  0  0  0  0  0  0  0
    0.9891  -10.4886   28.7342 H   0  0  0  0  0  0  0  0  0  0  0  0
    0.6314  -13.2384   28.8047 H   0  0  0  0  0  0  0  0  0  0  0  0
   -1.6459  -11.9150   27.1322 H   0  0  0  0  0  0  0  0  0  0  0  0
   -1.5370  -13.6683   27.4214 H   0  0  0  0  0  0  0  0  0  0  0  0
   -1.6656  -13.0418   25.7570 H   0  0  0  0  0  0  0  0  0  0  0  0
    9.7008   -8.5482   20.0630 H   0  0  0  0  0  0  0  0  0  0  0  0
   11.7258   -8.4840   22.4249 H   0  0  0  0  0  0  0  0  0  0  0  0
   14.3756   -7.7875   22.7310 H   0  0  0  0  0  0  0  0  0  0  0  0
   14.6562   -5.6548   21.3355 H   0  0  0  0  0  0  0  0  0  0  0  0
  1  2  1  0
  2  3  1  0
  2  4  1  0
  4  5  1  0
  5  6  1  0
  6  7  1  0
  7  8  1  0
  8  9  2  0
  8 10  1  0
 10 11  1  0
 11 12  1  0
 12 13  2  0
 13 14  1  0
 14 15  2  0
 15 16  1  0
 16 17  1  0
  5 18  1  0
 18 19  1  0
 19 20  2  0
 19 21  1  0
 21 22  1  0
 22 23  2  0
 23 24  1  0
 24 25  1  0
 16 12  1  0
 25 21  2  0
  1 26  1  0
  1 27  1  0
  1 28  1  0
  2 29  1  0
  3 30  1  0
  3 31  1  0
  3 32  1  0
  4 33  1  0
  4 34  1  0
  5 35  1  0
  6 36  1  0
  6 37  1  0
  7 38  1  0
 10 39  1  0
 10 40  1  0
 11 41  1  0
 11 42  1  0
 14 43  1  0
 15 44  1  0
 17 45  1  0
 17 46  1  0
 17 47  1  0
 18 48  1  0
 22 49  1  0
 23 50  1  0
 24 51  1  0
M  END
>  <Energy>  (800) 
1052.587884468981

>  <compound_id>  (800) 
10598

>  <target_id>  (800) 
1

>  <reference_id>  (800) 
116

>  <inspiration_ids>  (800) 
[116, 81]

>  <energy_score>  (800) 
992.2011712693907

>  <distance_score>  (800) 
6.056975461119699

>  <path>  (800) 
/opt/xchem-fragalysis-2/maxwin/BulkDock/SCRATCH/511021/C10598-P116/C10598-P116.minimised.mol

>  <scratch_subdir>  (800) 
/opt/xchem-fragalysis-2/maxwin/BulkDock/SCRATCH/511021/C10598-P116

>  <fragmenstein_runtime>  (800) 
17.40771174430847

>  <fragmenstein_outcome>  (800) 
too moved

>  <fragmenstein_mode>  (800) 
expansion

>  <fragmenstein_error>  (800) 


$$$$
C10598-P81
     RDKit          3D

 51 52  0  0  0  0  0  0  0  0999 V2000
    5.9137  -12.0623   19.0679 C   0  0  0  0  0  0  0  0  0  0  0  0
    6.1259  -11.4369   20.2945 C   0  0  0  0  0  0  0  0  0  0  0  0
    4.8149  -12.2665   20.6051 C   0  0  0  0  0  0  0  0  0  0  0  0
    7.1307   -9.9572   19.6130 C   0  0  0  0  0  0  0  0  0  0  0  0
    7.1257   -7.7734   20.0397 C   0  0  0  0  0  0  0  0  0  0  0  0
    6.1661   -7.2574   21.9395 C   0  0  0  0  0  0  0  0  0  0  0  0
    4.5453   -8.3027   22.7347 N   0  0  0  0  0  0  0  0  0  0  0  0
    4.2603  -10.2195   23.0325 C   0  0  0  0  0  0  0  0  0  0  0  0
    5.2169  -10.8131   22.7834 O   0  0  0  0  0  0  0  0  0  0  0  0
    2.6921  -11.6165   23.6290 C   0  0  0  0  0  0  0  0  0  0  0  0
    1.7485  -12.8278   25.0611 C   0  0  0  0  0  0  0  0  0  0  0  0
    0.1423  -13.3098   26.2455 C   0  0  0  0  0  0  0  0  0  0  0  0
   -1.1807  -13.5058   25.2712 N   0  0  0  0  0  0  0  0  0  0  0  0
   -2.2872  -14.3233   25.6786 C   0  0  0  0  0  0  0  0  0  0  0  0
   -2.0859  -15.0597   26.8576 C   0  0  0  0  0  0  0  0  0  0  0  0
   -0.7544  -14.5802   27.4345 N   0  0  0  0  0  0  0  0  0  0  0  0
   -0.7567  -15.1826   28.7925 C   0  0  0  0  0  0  0  0  0  0  0  0
    9.2161   -8.0261   20.2872 N   0  0  0  0  0  0  0  0  0  0  0  0
   10.4258   -6.9032   20.5428 C   0  0  0  0  0  0  0  0  0  0  0  0
   10.3815   -5.6759   20.5287 O   0  0  0  0  0  0  0  0  0  0  0  0
   11.9383   -7.4113   21.0382 C   0  0  0  0  0  0  0  0  0  0  0  0
   12.3064   -8.4368   21.9533 C   0  0  0  0  0  0  0  0  0  0  0  0
   13.6216   -8.1852   22.2748 C   0  0  0  0  0  0  0  0  0  0  0  0
   13.9481   -7.0096   21.6765 N   0  0  0  0  0  0  0  0  0  0  0  0
   12.9442   -6.4968   20.9700 N   0  0  0  0  0  0  0  0  0  0  0  0
    6.0633  -13.1381   19.1575 H   0  0  0  0  0  0  0  0  0  0  0  0
    4.9323  -12.1236   18.6705 H   0  0  0  0  0  0  0  0  0  0  0  0
    6.3360  -11.4136   18.3881 H   0  0  0  0  0  0  0  0  0  0  0  0
    6.8623  -12.1619   20.6523 H   0  0  0  0  0  0  0  0  0  0  0  0
    4.1783  -12.0058   21.4262 H   0  0  0  0  0  0  0  0  0  0  0  0
    4.0728  -12.6871   19.9260 H   0  0  0  0  0  0  0  0  0  0  0  0
    5.2348  -13.2510   20.7334 H   0  0  0  0  0  0  0  0  0  0  0  0
    7.9382  -10.5643   19.7844 H   0  0  0  0  0  0  0  0  0  0  0  0
    7.6439  -10.1734   18.6293 H   0  0  0  0  0  0  0  0  0  0  0  0
    6.9802   -7.0562   19.2094 H   0  0  0  0  0  0  0  0  0  0  0  0
    6.8188   -7.3431   22.8699 H   0  0  0  0  0  0  0  0  0  0  0  0
    6.5786   -6.3350   22.3855 H   0  0  0  0  0  0  0  0  0  0  0  0
    3.7408   -7.8285   23.0375 H   0  0  0  0  0  0  0  0  0  0  0  0
    3.2425  -12.4982   23.2716 H   0  0  0  0  0  0  0  0  0  0  0  0
    1.9019  -11.7543   22.9170 H   0  0  0  0  0  0  0  0  0  0  0  0
    2.4677  -13.5117   25.5180 H   0  0  0  0  0  0  0  0  0  0  0  0
    1.4088  -13.3617   24.1919 H   0  0  0  0  0  0  0  0  0  0  0  0
   -2.9333  -13.4712   25.8598 H   0  0  0  0  0  0  0  0  0  0  0  0
   -2.4023  -16.0245   27.2414 H   0  0  0  0  0  0  0  0  0  0  0  0
   -1.8286  -15.1688   29.0013 H   0  0  0  0  0  0  0  0  0  0  0  0
   -0.6886  -14.7536   29.7866 H   0  0  0  0  0  0  0  0  0  0  0  0
   -0.0119  -15.9563   28.7909 H   0  0  0  0  0  0  0  0  0  0  0  0
    9.5867   -8.8953   20.2862 H   0  0  0  0  0  0  0  0  0  0  0  0
   11.7124   -9.2112   22.4078 H   0  0  0  0  0  0  0  0  0  0  0  0
   14.3167   -8.6914   22.9301 H   0  0  0  0  0  0  0  0  0  0  0  0
   14.8161   -6.4844   21.7370 H   0  0  0  0  0  0  0  0  0  0  0  0
  1  2  1  0
  2  3  1  0
  2  4  1  0
  4  5  1  0
  5  6  1  0
  6  7  1  0
  7  8  1  0
  8  9  2  0
  8 10  1  0
 10 11  1  0
 11 12  1  0
 12 13  2  0
 13 14  1  0
 14 15  2  0
 15 16  1  0
 16 17  1  0
  5 18  1  0
 18 19  1  0
 19 20  2  0
 19 21  1  0
 21 22  1  0
 22 23  2  0
 23 24  1  0
 24 25  1  0
 16 12  1  0
 25 21  2  0
  1 26  1  0
  1 27  1  0
  1 28  1  0
  2 29  1  0
  3 30  1  0
  3 31  1  0
  3 32  1  0
  4 33  1  0
  4 34  1  0
  5 35  1  0
  6 36  1  0
  6 37  1  0
  7 38  1  0
 10 39  1  0
 10 40  1  0
 11 41  1  0
 11 42  1  0
 14 43  1  0
 15 44  1  0
 17 45  1  0
 17 46  1  0
 17 47  1  0
 18 48  1  0
 22 49  1  0
 23 50  1  0
 24 51  1  0
M  END
>  <Energy>  (801) 
1636.2347195225423

>  <compound_id>  (801) 
10598

>  <target_id>  (801) 
1

>  <reference_id>  (801) 
81

>  <inspiration_ids>  (801) 
[116, 81]

>  <energy_score>  (801) 
1575.84800632301

>  <distance_score>  (801) 
6.574205403307144

>  <path>  (801) 
/opt/xchem-fragalysis-2/maxwin/BulkDock/SCRATCH/511021/C10598-P81/C10598-P81.minimised.mol

>  <scratch_subdir>  (801) 
/opt/xchem-fragalysis-2/maxwin/BulkDock/SCRATCH/511021/C10598-P81

>  <fragmenstein_runtime>  (801) 
25.57469081878662

>  <fragmenstein_outcome>  (801) 
too moved

>  <fragmenstein_mode>  (801) 
expansion

>  <fragmenstein_error>  (801) 


$$$$
C12667-P116
     RDKit          3D

 51 52  0  0  0  0  0  0  0  0999 V2000
    5.9209   -2.2722   20.4925 C   0  0  0  0  0  0  0  0  0  0  0  0
    5.1561   -3.2497   20.8884 C   0  0  0  0  0  0  0  0  0  0  0  0
    4.9353   -2.3397   22.6238 C   0  0  0  0  0  0  0  0  0  0  0  0
    6.0092   -4.6336   19.6402 C   0  0  0  0  0  0  0  0  0  0  0  0
    6.4736   -6.4000   19.0589 C   0  0  0  0  0  0  0  0  0  0  0  0
    4.8872   -6.5830   17.7545 C   0  0  0  0  0  0  0  0  0  0  0  0
    3.2531   -7.6279   18.0623 N   0  0  0  0  0  0  0  0  0  0  0  0
    1.8782   -7.3957   19.3071 C   0  0  0  0  0  0  0  0  0  0  0  0
    1.8358   -6.4125   20.0091 O   0  0  0  0  0  0  0  0  0  0  0  0
    0.4567   -8.6754   19.8922 C   0  0  0  0  0  0  0  0  0  0  0  0
    0.1702  -10.2921   21.1696 C   0  0  0  0  0  0  0  0  0  0  0  0
    0.4151  -11.7230   22.6119 C   0  0  0  0  0  0  0  0  0  0  0  0
    1.6661  -12.3187   22.6748 N   0  0  0  0  0  0  0  0  0  0  0  0
    2.0931  -12.6025   23.9154 C   0  0  0  0  0  0  0  0  0  0  0  0
    1.0847  -12.5692   24.7777 C   0  0  0  0  0  0  0  0  0  0  0  0
   -0.0837  -12.6544   23.9608 N   0  0  0  0  0  0  0  0  0  0  0  0
   -1.4006  -12.9065   25.2015 C   0  0  0  0  0  0  0  0  0  0  0  0
    7.6215   -6.1065   18.5179 N   0  0  0  0  0  0  0  0  0  0  0  0
    9.5267   -5.9181   19.2940 C   0  0  0  0  0  0  0  0  0  0  0  0
    9.9572   -6.1414   20.4324 O   0  0  0  0  0  0  0  0  0  0  0  0
   10.9439   -5.1386   18.2111 C   0  0  0  0  0  0  0  0  0  0  0  0
   11.3740   -4.5179   16.9151 C   0  0  0  0  0  0  0  0  0  0  0  0
   12.6018   -3.9866   16.8647 N   0  0  0  0  0  0  0  0  0  0  0  0
   13.1321   -4.2905   18.0411 N   0  0  0  0  0  0  0  0  0  0  0  0
   12.2617   -4.8726   18.8957 C   0  0  0  0  0  0  0  0  0  0  0  0
    5.5317   -2.5550   19.4816 H   0  0  0  0  0  0  0  0  0  0  0  0
    6.4308   -1.2871   20.5247 H   0  0  0  0  0  0  0  0  0  0  0  0
    6.7265   -2.8848   21.0201 H   0  0  0  0  0  0  0  0  0  0  0  0
    4.2229   -3.6331   20.6828 H   0  0  0  0  0  0  0  0  0  0  0  0
    5.6195   -2.7094   23.4087 H   0  0  0  0  0  0  0  0  0  0  0  0
    4.9140   -1.2452   22.5068 H   0  0  0  0  0  0  0  0  0  0  0  0
    3.8875   -2.3228   23.0346 H   0  0  0  0  0  0  0  0  0  0  0  0
    7.0404   -4.4695   19.8445 H   0  0  0  0  0  0  0  0  0  0  0  0
    5.1955   -4.5840   18.9648 H   0  0  0  0  0  0  0  0  0  0  0  0
    6.6818   -7.2933   19.6720 H   0  0  0  0  0  0  0  0  0  0  0  0
    4.6581   -5.5594   17.4610 H   0  0  0  0  0  0  0  0  0  0  0  0
    5.4488   -6.8636   16.8896 H   0  0  0  0  0  0  0  0  0  0  0  0
    3.0623   -8.4711   17.5168 H   0  0  0  0  0  0  0  0  0  0  0  0
    0.1293   -8.0166   20.7069 H   0  0  0  0  0  0  0  0  0  0  0  0
   -0.3887   -8.5868   19.1846 H   0  0  0  0  0  0  0  0  0  0  0  0
    0.8235  -10.8962   20.7043 H   0  0  0  0  0  0  0  0  0  0  0  0
    0.9511   -9.6827   21.6277 H   0  0  0  0  0  0  0  0  0  0  0  0
    3.0978  -12.8748   24.1144 H   0  0  0  0  0  0  0  0  0  0  0  0
    1.0477  -12.7185   25.8468 H   0  0  0  0  0  0  0  0  0  0  0  0
   -0.8500  -12.9900   26.1554 H   0  0  0  0  0  0  0  0  0  0  0  0
   -1.9112  -13.7921   24.8395 H   0  0  0  0  0  0  0  0  0  0  0  0
   -2.1230  -12.1142   25.4466 H   0  0  0  0  0  0  0  0  0  0  0  0
    7.5480   -5.7690   17.5747 H   0  0  0  0  0  0  0  0  0  0  0  0
   10.8514   -4.3251   15.9957 H   0  0  0  0  0  0  0  0  0  0  0  0
   14.1051   -4.0614   18.2080 H   0  0  0  0  0  0  0  0  0  0  0  0
   12.5365   -5.1098   19.9158 H   0  0  0  0  0  0  0  0  0  0  0  0
  1  2  1  0
  2  3  1  0
  2  4  1  0
  4  5  1  0
  5  6  1  0
  6  7  1  0
  7  8  1  0
  8  9  2  0
  8 10  1  0
 10 11  1  0
 11 12  1  0
 12 13  2  0
 13 14  1  0
 14 15  2  0
 15 16  1  0
 16 17  1  0
  5 18  1  0
 18 19  1  0
 19 20  2  0
 19 21  1  0
 21 22  1  0
 22 23  2  0
 23 24  1  0
 24 25  1  0
 16 12  1  0
 25 21  2  0
  1 26  1  0
  1 27  1  0
  1 28  1  0
  2 29  1  0
  3 30  1  0
  3 31  1  0
  3 32  1  0
  4 33  1  0
  4 34  1  0
  5 35  1  0
  6 36  1  0
  6 37  1  0
  7 38  1  0
 10 39  1  0
 10 40  1  0
 11 41  1  0
 11 42  1  0
 14 43  1  0
 15 44  1  0
 17 45  1  0
 17 46  1  0
 17 47  1  0
 18 48  1  0
 22 49  1  0
 24 50  1  0
 25 51  1  0
M  END
>  <Energy>  (802) 
1300.3701431584257

>  <compound_id>  (802) 
12667

>  <target_id>  (802) 
1

>  <reference_id>  (802) 
116

>  <inspiration_ids>  (802) 
[116, 81]

>  <energy_score>  (802) 
1265.7782314365045

>  <distance_score>  (802) 
4.975310278496466

>  <path>  (802) 
/opt/xchem-fragalysis-2/maxwin/BulkDock/SCRATCH/511021/C12667-P116/C12667-P116.minimised.mol

>  <scratch_subdir>  (802) 
/opt/xchem-fragalysis-2/maxwin/BulkDock/SCRATCH/511021/C12667-P116

>  <fragmenstein_runtime>  (802) 
21.593635320663452

>  <fragmenstein_outcome>  (802) 
too moved

>  <fragmenstein_mode>  (802) 
expansion

>  <fragmenstein_error>  (802) 


$$$$
C12667-P81
     RDKit          3D

 51 52  0  0  0  0  0  0  0  0999 V2000
    4.6907   -2.4443   18.2854 C   0  0  0  0  0  0  0  0  0  0  0  0
    5.4137   -3.6145   19.7292 C   0  0  0  0  0  0  0  0  0  0  0  0
    5.8263   -2.7055   21.1116 C   0  0  0  0  0  0  0  0  0  0  0  0
    6.7579   -4.9551   19.1018 C   0  0  0  0  0  0  0  0  0  0  0  0
    7.1530   -5.8253   17.2872 C   0  0  0  0  0  0  0  0  0  0  0  0
    5.7457   -6.3747   18.5334 C   0  0  0  0  0  0  0  0  0  0  0  0
    5.3297   -7.7766   19.8037 N   0  0  0  0  0  0  0  0  0  0  0  0
    5.2032   -7.8268   21.8812 C   0  0  0  0  0  0  0  0  0  0  0  0
    5.4714   -6.9408   22.7610 O   0  0  0  0  0  0  0  0  0  0  0  0
    4.6829   -9.7660   22.8509 C   0  0  0  0  0  0  0  0  0  0  0  0
    3.6436  -11.3107   22.5199 C   0  0  0  0  0  0  0  0  0  0  0  0
    2.9282  -12.5952   23.4434 C   0  0  0  0  0  0  0  0  0  0  0  0
    3.4689  -13.7828   23.6860 N   0  0  0  0  0  0  0  0  0  0  0  0
    3.4718  -13.8007   25.0151 C   0  0  0  0  0  0  0  0  0  0  0  0
    2.0423  -13.2539   25.3672 C   0  0  0  0  0  0  0  0  0  0  0  0
    1.7648  -12.8228   24.1163 N   0  0  0  0  0  0  0  0  0  0  0  0
    0.5668  -14.0805   23.6882 C   0  0  0  0  0  0  0  0  0  0  0  0
    7.8606   -4.3023   16.0080 N   0  0  0  0  0  0  0  0  0  0  0  0
    9.5577   -3.8789   15.3700 C   0  0  0  0  0  0  0  0  0  0  0  0
   10.6395   -4.4662   15.4880 O   0  0  0  0  0  0  0  0  0  0  0  0
    9.5459   -2.5745   14.7356 C   0  0  0  0  0  0  0  0  0  0  0  0
   10.7452   -1.7767   14.6725 C   0  0  0  0  0  0  0  0  0  0  0  0
   10.5081   -0.4639   14.7928 N   0  0  0  0  0  0  0  0  0  0  0  0
    9.1700   -0.4061   14.8579 N   0  0  0  0  0  0  0  0  0  0  0  0
    8.5483   -1.6208   14.8816 C   0  0  0  0  0  0  0  0  0  0  0  0
    3.7845   -1.8413   18.3900 H   0  0  0  0  0  0  0  0  0  0  0  0
    4.1986   -3.1025   17.5243 H   0  0  0  0  0  0  0  0  0  0  0  0
    5.4146   -1.6956   17.9399 H   0  0  0  0  0  0  0  0  0  0  0  0
    4.6704   -4.3441   19.9809 H   0  0  0  0  0  0  0  0  0  0  0  0
    5.9969   -3.1021   22.0844 H   0  0  0  0  0  0  0  0  0  0  0  0
    5.3189   -1.8917   21.6694 H   0  0  0  0  0  0  0  0  0  0  0  0
    6.6174   -2.0109   20.8015 H   0  0  0  0  0  0  0  0  0  0  0  0
    6.9562   -5.7139   19.8151 H   0  0  0  0  0  0  0  0  0  0  0  0
    7.5842   -4.5873   19.7163 H   0  0  0  0  0  0  0  0  0  0  0  0
    6.4259   -6.1640   16.5234 H   0  0  0  0  0  0  0  0  0  0  0  0
    5.2994   -7.0042   17.7677 H   0  0  0  0  0  0  0  0  0  0  0  0
    4.8834   -5.7018   18.5197 H   0  0  0  0  0  0  0  0  0  0  0  0
    4.9582   -8.6232   19.3668 H   0  0  0  0  0  0  0  0  0  0  0  0
    4.9500   -9.6472   23.9020 H   0  0  0  0  0  0  0  0  0  0  0  0
    5.5484  -10.5028   22.6621 H   0  0  0  0  0  0  0  0  0  0  0  0
    4.4598  -11.6895   22.9244 H   0  0  0  0  0  0  0  0  0  0  0  0
    3.9856  -11.8233   21.6064 H   0  0  0  0  0  0  0  0  0  0  0  0
    4.1634  -14.3589   25.6464 H   0  0  0  0  0  0  0  0  0  0  0  0
    1.3713  -13.3582   26.2074 H   0  0  0  0  0  0  0  0  0  0  0  0
    1.3268  -14.7429   23.1800 H   0  0  0  0  0  0  0  0  0  0  0  0
   -0.1620  -14.2464   24.4021 H   0  0  0  0  0  0  0  0  0  0  0  0
   -0.1661  -13.7219   22.9354 H   0  0  0  0  0  0  0  0  0  0  0  0
    7.1697   -3.6223   15.6440 H   0  0  0  0  0  0  0  0  0  0  0  0
   11.7689   -2.1322   14.6677 H   0  0  0  0  0  0  0  0  0  0  0  0
    8.7275    0.4972   14.9533 H   0  0  0  0  0  0  0  0  0  0  0  0
    7.4862   -1.6729   15.0513 H   0  0  0  0  0  0  0  0  0  0  0  0
  1  2  1  0
  2  3  1  0
  2  4  1  0
  4  5  1  0
  5  6  1  0
  6  7  1  0
  7  8  1  0
  8  9  2  0
  8 10  1  0
 10 11  1  0
 11 12  1  0
 12 13  2  0
 13 14  1  0
 14 15  2  0
 15 16  1  0
 16 17  1  0
  5 18  1  0
 18 19  1  0
 19 20  2  0
 19 21  1  0
 21 22  1  0
 22 23  2  0
 23 24  1  0
 24 25  1  0
 16 12  1  0
 25 21  2  0
  1 26  1  0
  1 27  1  0
  1 28  1  0
  2 29  1  0
  3 30  1  0
  3 31  1  0
  3 32  1  0
  4 33  1  0
  4 34  1  0
  5 35  1  0
  6 36  1  0
  6 37  1  0
  7 38  1  0
 10 39  1  0
 10 40  1  0
 11 41  1  0
 11 42  1  0
 14 43  1  0
 15 44  1  0
 17 45  1  0
 17 46  1  0
 17 47  1  0
 18 48  1  0
 22 49  1  0
 24 50  1  0
 25 51  1  0
M  END
>  <Energy>  (803) 
1244.2076916816791

>  <compound_id>  (803) 
12667

>  <target_id>  (803) 
1

>  <reference_id>  (803) 
81

>  <inspiration_ids>  (803) 
[116, 81]

>  <energy_score>  (803) 
1209.6157799597545

>  <distance_score>  (803) 
4.876793045426916

>  <path>  (803) 
/opt/xchem-fragalysis-2/maxwin/BulkDock/SCRATCH/511021/C12667-P81/C12667-P81.minimised.mol

>  <scratch_subdir>  (803) 
/opt/xchem-fragalysis-2/maxwin/BulkDock/SCRATCH/511021/C12667-P81

>  <fragmenstein_runtime>  (803) 
23.83094096183777

>  <fragmenstein_outcome>  (803) 
too moved

>  <fragmenstein_mode>  (803) 
expansion

>  <fragmenstein_error>  (803) 


$$$$
C10599-P116
     RDKit          3D

 46 48  0  0  0  0  0  0  0  0999 V2000
    6.3064  -13.3487   27.1714 C   0  0  0  0  0  0  0  0  0  0  0  0
    7.1525  -12.0129   27.0508 C   0  0  0  0  0  0  0  0  0  0  0  0
    8.5223  -11.8825   26.3393 C   0  0  0  0  0  0  0  0  0  0  0  0
    6.1023  -11.1761   26.4720 C   0  0  0  0  0  0  0  0  0  0  0  0
    5.7025  -11.9978   25.1914 C   0  0  0  0  0  0  0  0  0  0  0  0
    6.2785  -11.1561   23.9998 C   0  0  0  0  0  0  0  0  0  0  0  0
    5.5693  -11.2611   23.0525 O   0  0  0  0  0  0  0  0  0  0  0  0
    7.5433  -10.2591   24.1947 N   0  0  0  0  0  0  0  0  0  0  0  0
    8.1748   -9.1716   23.2527 C   0  0  0  0  0  0  0  0  0  0  0  0
    9.3841   -8.5379   21.3196 C   0  0  0  0  0  0  0  0  0  0  0  0
    7.4682   -7.5361   20.4591 C   0  0  0  0  0  0  0  0  0  0  0  0
    6.7382   -6.3647   21.8016 N   0  0  0  0  0  0  0  0  0  0  0  0
    7.7196   -4.7592   21.1724 C   0  0  0  0  0  0  0  0  0  0  0  0
    9.7896   -5.1469   21.0903 C   0  0  0  0  0  0  0  0  0  0  0  0
   10.6751   -6.0082   20.7145 C   0  0  0  0  0  0  0  0  0  0  0  0
    9.7891   -5.6179   19.7184 N   0  0  0  0  0  0  0  0  0  0  0  0
    8.4682   -4.4288   20.0242 N   0  0  0  0  0  0  0  0  0  0  0  0
    6.9578   -7.4111   23.3626 C   0  0  0  0  0  0  0  0  0  0  0  0
    6.5647   -7.0064   24.4652 O   0  0  0  0  0  0  0  0  0  0  0  0
    4.2601  -13.2318   25.1666 N   0  0  0  0  0  0  0  0  0  0  0  0
    3.3451  -13.7224   26.3202 C   0  0  0  0  0  0  0  0  0  0  0  0
    1.9501  -13.4054   26.0991 C   0  0  0  0  0  0  0  0  0  0  0  0
    1.7643  -12.8439   24.8364 N   0  0  0  0  0  0  0  0  0  0  0  0
    2.9490  -12.8851   24.2114 C   0  0  0  0  0  0  0  0  0  0  0  0
    5.5217  -13.0692   27.8807 H   0  0  0  0  0  0  0  0  0  0  0  0
    6.7159  -14.2917   27.5068 H   0  0  0  0  0  0  0  0  0  0  0  0
    5.8391  -13.8266   26.3551 H   0  0  0  0  0  0  0  0  0  0  0  0
    7.2750  -11.5063   28.0193 H   0  0  0  0  0  0  0  0  0  0  0  0
    9.3865  -12.3152   26.8170 H   0  0  0  0  0  0  0  0  0  0  0  0
    8.5381  -12.2720   25.3189 H   0  0  0  0  0  0  0  0  0  0  0  0
    8.8529  -10.8378   26.3901 H   0  0  0  0  0  0  0  0  0  0  0  0
    5.4165  -11.0307   27.3016 H   0  0  0  0  0  0  0  0  0  0  0  0
    6.4434  -10.1513   26.2965 H   0  0  0  0  0  0  0  0  0  0  0  0
    6.5123  -12.6494   25.0442 H   0  0  0  0  0  0  0  0  0  0  0  0
    7.8608  -10.3392   25.1261 H   0  0  0  0  0  0  0  0  0  0  0  0
    7.4546   -9.8390   22.9679 H   0  0  0  0  0  0  0  0  0  0  0  0
    9.6817   -8.7754   20.2798 H   0  0  0  0  0  0  0  0  0  0  0  0
   10.2533   -7.9537   21.7379 H   0  0  0  0  0  0  0  0  0  0  0  0
    7.4108   -7.0779   19.4311 H   0  0  0  0  0  0  0  0  0  0  0  0
    6.5514   -7.9267   20.1164 H   0  0  0  0  0  0  0  0  0  0  0  0
   10.5476   -4.4106   21.6029 H   0  0  0  0  0  0  0  0  0  0  0  0
   11.7594   -6.0372   20.6744 H   0  0  0  0  0  0  0  0  0  0  0  0
   10.1919   -5.3633   18.8306 H   0  0  0  0  0  0  0  0  0  0  0  0
    3.6711  -13.3438   27.2680 H   0  0  0  0  0  0  0  0  0  0  0  0
    1.1647  -13.3884   26.8460 H   0  0  0  0  0  0  0  0  0  0  0  0
    3.1145  -12.5435   23.1998 H   0  0  0  0  0  0  0  0  0  0  0  0
  1  2  1  0
  2  3  1  0
  2  4  1  0
  4  5  1  0
  5  6  1  0
  6  7  2  0
  6  8  1  0
  8  9  1  0
  9 10  1  0
 10 11  1  0
 11 12  1  0
 12 13  1  0
 13 14  1  0
 14 15  2  0
 15 16  1  0
 16 17  1  0
 12 18  1  0
 18 19  2  0
  5 20  1  0
 20 21  1  0
 21 22  2  0
 22 23  1  0
 23 24  2  0
 18  9  1  0
 24 20  1  0
 17 13  2  0
  1 25  1  0
  1 26  1  0
  1 27  1  0
  2 28  1  0
  3 29  1  0
  3 30  1  0
  3 31  1  0
  4 32  1  0
  4 33  1  0
  5 34  1  0
  8 35  1  0
  9 36  1  0
 10 37  1  0
 10 38  1  0
 11 39  1  0
 11 40  1  0
 14 41  1  0
 15 42  1  0
 16 43  1  0
 21 44  1  0
 22 45  1  0
 24 46  1  0
M  END
>  <Energy>  (804) 
1575.5596914295902

>  <compound_id>  (804) 
10599

>  <target_id>  (804) 
1

>  <reference_id>  (804) 
116

>  <inspiration_ids>  (804) 
[116, 81]

>  <energy_score>  (804) 
1509.7981546185765

>  <distance_score>  (804) 
6.5451566318038505

>  <path>  (804) 
/opt/xchem-fragalysis-2/maxwin/BulkDock/SCRATCH/511021/C10599-P116/C10599-P116.minimised.mol

>  <scratch_subdir>  (804) 
/opt/xchem-fragalysis-2/maxwin/BulkDock/SCRATCH/511021/C10599-P116

>  <fragmenstein_runtime>  (804) 
13.666763305664062

>  <fragmenstein_outcome>  (804) 
too moved

>  <fragmenstein_mode>  (804) 
expansion

>  <fragmenstein_error>  (804) 


$$$$
C10599-P81
     RDKit          3D

 46 48  0  0  0  0  0  0  0  0999 V2000
   11.9619   -8.9283   28.6609 C   0  0  0  0  0  0  0  0  0  0  0  0
   12.3790  -10.0638   27.7242 C   0  0  0  0  0  0  0  0  0  0  0  0
   13.2543  -11.0565   28.4947 C   0  0  0  0  0  0  0  0  0  0  0  0
   11.1652  -10.7975   27.1157 C   0  0  0  0  0  0  0  0  0  0  0  0
   10.2780   -9.9594   26.1614 C   0  0  0  0  0  0  0  0  0  0  0  0
   11.0905   -9.6455   24.8459 C   0  0  0  0  0  0  0  0  0  0  0  0
   11.1658  -10.4626   23.9748 O   0  0  0  0  0  0  0  0  0  0  0  0
   11.7273   -8.3410   24.9818 N   0  0  0  0  0  0  0  0  0  0  0  0
   12.7255   -7.6692   24.1509 C   0  0  0  0  0  0  0  0  0  0  0  0
   14.1857   -8.0133   24.4148 C   0  0  0  0  0  0  0  0  0  0  0  0
   14.9075   -7.0693   23.4411 C   0  0  0  0  0  0  0  0  0  0  0  0
   13.9827   -6.8858   22.3396 N   0  0  0  0  0  0  0  0  0  0  0  0
   14.1544   -5.9203   21.3425 C   0  0  0  0  0  0  0  0  0  0  0  0
   13.1744   -5.3254   20.5098 C   0  0  0  0  0  0  0  0  0  0  0  0
   13.8306   -4.4084   19.7235 C   0  0  0  0  0  0  0  0  0  0  0  0
   15.1223   -4.4509   20.1361 N   0  0  0  0  0  0  0  0  0  0  0  0
   15.3444   -5.3473   21.1147 N   0  0  0  0  0  0  0  0  0  0  0  0
   12.7746   -7.5522   22.6175 C   0  0  0  0  0  0  0  0  0  0  0  0
   11.9181   -7.9320   21.8378 O   0  0  0  0  0  0  0  0  0  0  0  0
    8.9486  -10.6191   26.0339 N   0  0  0  0  0  0  0  0  0  0  0  0
    7.9263  -10.4285   26.9464 C   0  0  0  0  0  0  0  0  0  0  0  0
    7.0327  -11.4451   26.7148 C   0  0  0  0  0  0  0  0  0  0  0  0
    7.4154  -12.1897   25.6347 N   0  0  0  0  0  0  0  0  0  0  0  0
    8.5820  -11.6927   25.2674 C   0  0  0  0  0  0  0  0  0  0  0  0
   11.4241   -8.1388   28.1298 H   0  0  0  0  0  0  0  0  0  0  0  0
   12.8410   -8.4654   29.1225 H   0  0  0  0  0  0  0  0  0  0  0  0
   11.3149   -9.2960   29.4648 H   0  0  0  0  0  0  0  0  0  0  0  0
   12.9980   -9.6490   26.9222 H   0  0  0  0  0  0  0  0  0  0  0  0
   14.1551  -10.5643   28.8766 H   0  0  0  0  0  0  0  0  0  0  0  0
   12.7148  -11.4789   29.3479 H   0  0  0  0  0  0  0  0  0  0  0  0
   13.5743  -11.8807   27.8487 H   0  0  0  0  0  0  0  0  0  0  0  0
   10.5553  -11.1890   27.9411 H   0  0  0  0  0  0  0  0  0  0  0  0
   11.5253  -11.6774   26.5651 H   0  0  0  0  0  0  0  0  0  0  0  0
   10.0195   -9.0044   26.6344 H   0  0  0  0  0  0  0  0  0  0  0  0
   11.5012   -7.9546   25.8900 H   0  0  0  0  0  0  0  0  0  0  0  0
   12.5778   -6.6247   24.4722 H   0  0  0  0  0  0  0  0  0  0  0  0
   14.3858   -9.0619   24.1626 H   0  0  0  0  0  0  0  0  0  0  0  0
   14.4912   -7.8445   25.4517 H   0  0  0  0  0  0  0  0  0  0  0  0
   15.8500   -7.4947   23.0833 H   0  0  0  0  0  0  0  0  0  0  0  0
   15.0943   -6.0984   23.9146 H   0  0  0  0  0  0  0  0  0  0  0  0
   12.1168   -5.5195   20.4863 H   0  0  0  0  0  0  0  0  0  0  0  0
   13.4867   -3.7296   18.9569 H   0  0  0  0  0  0  0  0  0  0  0  0
   15.9063   -3.8954   19.8084 H   0  0  0  0  0  0  0  0  0  0  0  0
    7.9675   -9.6647   27.7097 H   0  0  0  0  0  0  0  0  0  0  0  0
    6.1384  -11.6785   27.2744 H   0  0  0  0  0  0  0  0  0  0  0  0
    9.2090  -12.0923   24.4779 H   0  0  0  0  0  0  0  0  0  0  0  0
  1  2  1  0
  2  3  1  0
  2  4  1  0
  4  5  1  0
  5  6  1  0
  6  7  2  0
  6  8  1  0
  8  9  1  0
  9 10  1  0
 10 11  1  0
 11 12  1  0
 12 13  1  0
 13 14  1  0
 14 15  2  0
 15 16  1  0
 16 17  1  0
 12 18  1  0
 18 19  2  0
  5 20  1  0
 20 21  1  0
 21 22  2  0
 22 23  1  0
 23 24  2  0
 18  9  1  0
 24 20  1  0
 17 13  2  0
  1 25  1  0
  1 26  1  0
  1 27  1  0
  2 28  1  0
  3 29  1  0
  3 30  1  0
  3 31  1  0
  4 32  1  0
  4 33  1  0
  5 34  1  0
  8 35  1  0
  9 36  1  0
 10 37  1  0
 10 38  1  0
 11 39  1  0
 11 40  1  0
 14 41  1  0
 15 42  1  0
 16 43  1  0
 21 44  1  0
 22 45  1  0
 24 46  1  0
M  END
>  <Energy>  (805) 
37.522642803241169

>  <compound_id>  (805) 
10599

>  <target_id>  (805) 
1

>  <reference_id>  (805) 
81

>  <inspiration_ids>  (805) 
[116, 81]

>  <energy_score>  (805) 
-28.23889400778387

>  <distance_score>  (805) 
8.219518709733576

>  <path>  (805) 
/opt/xchem-fragalysis-2/maxwin/BulkDock/SCRATCH/511021/C10599-P81/C10599-P81.minimised.mol

>  <scratch_subdir>  (805) 
/opt/xchem-fragalysis-2/maxwin/BulkDock/SCRATCH/511021/C10599-P81

>  <fragmenstein_runtime>  (805) 
35.36445355415344

>  <fragmenstein_outcome>  (805) 
too moved

>  <fragmenstein_mode>  (805) 
expansion

>  <fragmenstein_error>  (805) 


$$$$
C10600-P116
     RDKit          3D

 39 40  0  0  0  0  0  0  0  0999 V2000
    5.5362   -5.1063   25.2010 C   0  0  0  0  0  0  0  0  0  0  0  0
    6.1742   -5.7664   23.9417 C   0  0  0  0  0  0  0  0  0  0  0  0
    5.4730   -6.8280   22.8176 C   0  0  0  0  0  0  0  0  0  0  0  0
    6.8369   -7.2623   21.0555 C   0  0  0  0  0  0  0  0  0  0  0  0
    8.9955   -7.5462   20.5267 N   0  0  0  0  0  0  0  0  0  0  0  0
   10.4590   -6.4277   20.9210 C   0  0  0  0  0  0  0  0  0  0  0  0
   10.3678   -5.3573   21.4184 O   0  0  0  0  0  0  0  0  0  0  0  0
   11.8788   -6.7763   20.8137 C   0  0  0  0  0  0  0  0  0  0  0  0
   12.8801   -5.7440   20.5310 C   0  0  0  0  0  0  0  0  0  0  0  0
   14.0077   -6.1145   21.2120 C   0  0  0  0  0  0  0  0  0  0  0  0
   13.6678   -7.2450   21.8915 N   0  0  0  0  0  0  0  0  0  0  0  0
   12.3928   -7.6650   21.7027 N   0  0  0  0  0  0  0  0  0  0  0  0
    4.0387   -7.0199   24.3568 N   0  0  0  0  0  0  0  0  0  0  0  0
    2.0136   -6.7981   24.4381 C   0  0  0  0  0  0  0  0  0  0  0  0
    1.3458   -6.3917   23.5012 O   0  0  0  0  0  0  0  0  0  0  0  0
    0.6962   -7.3473   25.9316 C   0  0  0  0  0  0  0  0  0  0  0  0
    0.0950   -8.9868   26.7817 C   0  0  0  0  0  0  0  0  0  0  0  0
    0.5544   -9.9478   27.8874 C   0  0  0  0  0  0  0  0  0  0  0  0
   -0.1040  -11.0916   28.1034 N   0  0  0  0  0  0  0  0  0  0  0  0
   -0.8860  -11.0840   27.0938 C   0  0  0  0  0  0  0  0  0  0  0  0
   -0.7907   -9.8888   26.3558 N   0  0  0  0  0  0  0  0  0  0  0  0
    6.1556   -4.2881   25.5732 H   0  0  0  0  0  0  0  0  0  0  0  0
    5.5340   -5.8072   26.0425 H   0  0  0  0  0  0  0  0  0  0  0  0
    4.5379   -4.6902   25.0721 H   0  0  0  0  0  0  0  0  0  0  0  0
    6.8986   -6.3953   24.4805 H   0  0  0  0  0  0  0  0  0  0  0  0
    6.5495   -4.9623   23.3417 H   0  0  0  0  0  0  0  0  0  0  0  0
    6.0385   -7.5212   23.3949 H   0  0  0  0  0  0  0  0  0  0  0  0
    6.4827   -7.6560   20.0942 H   0  0  0  0  0  0  0  0  0  0  0  0
    6.6402   -6.2013   20.8751 H   0  0  0  0  0  0  0  0  0  0  0  0
    9.3249   -8.3730   20.0274 H   0  0  0  0  0  0  0  0  0  0  0  0
   12.7188   -4.8258   19.9833 H   0  0  0  0  0  0  0  0  0  0  0  0
   14.9815   -5.6580   21.3112 H   0  0  0  0  0  0  0  0  0  0  0  0
   14.2547   -7.7802   22.5221 H   0  0  0  0  0  0  0  0  0  0  0  0
    4.3935   -7.2900   25.2731 H   0  0  0  0  0  0  0  0  0  0  0  0
   -0.0203   -6.4815   25.6941 H   0  0  0  0  0  0  0  0  0  0  0  0
   -0.3986   -7.5456   25.5814 H   0  0  0  0  0  0  0  0  0  0  0  0
    1.4605   -9.8859   28.4781 H   0  0  0  0  0  0  0  0  0  0  0  0
   -1.5906  -11.8626   26.8241 H   0  0  0  0  0  0  0  0  0  0  0  0
   -1.4159   -9.7495   25.5905 H   0  0  0  0  0  0  0  0  0  0  0  0
  1  2  1  0
  2  3  1  0
  3  4  1  0
  4  5  1  0
  5  6  1  0
  6  7  2  0
  6  8  1  0
  8  9  1  0
  9 10  2  0
 10 11  1  0
 11 12  1  0
  3 13  1  0
 13 14  1  0
 14 15  2  0
 14 16  1  0
 16 17  1  0
 17 18  2  0
 18 19  1  0
 19 20  2  0
 20 21  1  0
 12  8  2  0
 21 17  1  0
  1 22  1  0
  1 23  1  0
  1 24  1  0
  2 25  1  0
  2 26  1  0
  3 27  1  0
  4 28  1  0
  4 29  1  0
  5 30  1  0
  9 31  1  0
 10 32  1  0
 11 33  1  0
 13 34  1  0
 16 35  1  0
 16 36  1  0
 18 37  1  0
 20 38  1  0
 21 39  1  0
M  END
>  <Energy>  (806) 
1191.1972056389038

>  <compound_id>  (806) 
10600

>  <target_id>  (806) 
1

>  <reference_id>  (806) 
116

>  <inspiration_ids>  (806) 
[116, 81]

>  <energy_score>  (806) 
1125.3117673047677

>  <distance_score>  (806) 
6.463509457571122

>  <path>  (806) 
/opt/xchem-fragalysis-2/maxwin/BulkDock/SCRATCH/511021/C10600-P116/C10600-P116.minimised.mol

>  <scratch_subdir>  (806) 
/opt/xchem-fragalysis-2/maxwin/BulkDock/SCRATCH/511021/C10600-P116

>  <fragmenstein_runtime>  (806) 
20.817525625228882

>  <fragmenstein_outcome>  (806) 
too moved

>  <fragmenstein_mode>  (806) 
expansion

>  <fragmenstein_error>  (806) 


$$$$
C10600-P81
     RDKit          3D

 39 40  0  0  0  0  0  0  0  0999 V2000
    6.7903   -9.1623   25.2366 C   0  0  0  0  0  0  0  0  0  0  0  0
    6.2697  -10.1966   24.2118 C   0  0  0  0  0  0  0  0  0  0  0  0
    4.8111   -9.7150   22.8466 C   0  0  0  0  0  0  0  0  0  0  0  0
    5.4346   -7.7272   22.0355 C   0  0  0  0  0  0  0  0  0  0  0  0
    7.0485   -6.9502   20.9442 N   0  0  0  0  0  0  0  0  0  0  0  0
    8.8114   -7.6993   20.0089 C   0  0  0  0  0  0  0  0  0  0  0  0
    9.2221   -8.8077   19.8189 O   0  0  0  0  0  0  0  0  0  0  0  0
    9.9646   -6.0348   19.5605 C   0  0  0  0  0  0  0  0  0  0  0  0
   11.0695   -5.1784   18.2996 C   0  0  0  0  0  0  0  0  0  0  0  0
   12.3785   -4.8617   18.8433 C   0  0  0  0  0  0  0  0  0  0  0  0
   12.2089   -5.1966   20.1379 N   0  0  0  0  0  0  0  0  0  0  0  0
   11.0386   -5.7852   20.4948 N   0  0  0  0  0  0  0  0  0  0  0  0
    4.7433  -11.0296   22.9067 N   0  0  0  0  0  0  0  0  0  0  0  0
    3.3334  -12.1299   22.9104 C   0  0  0  0  0  0  0  0  0  0  0  0
    2.2113  -11.7874   22.7370 O   0  0  0  0  0  0  0  0  0  0  0  0
    3.3600  -13.8205   23.3373 C   0  0  0  0  0  0  0  0  0  0  0  0
    3.4290  -15.1916   22.5041 C   0  0  0  0  0  0  0  0  0  0  0  0
    2.7957  -15.7809   21.4262 C   0  0  0  0  0  0  0  0  0  0  0  0
    3.2151  -17.0735   21.2347 N   0  0  0  0  0  0  0  0  0  0  0  0
    4.1548  -17.2683   22.1222 C   0  0  0  0  0  0  0  0  0  0  0  0
    4.3612  -16.1551   22.8725 N   0  0  0  0  0  0  0  0  0  0  0  0
    7.6676   -8.6393   24.8550 H   0  0  0  0  0  0  0  0  0  0  0  0
    7.1067   -9.6696   26.1547 H   0  0  0  0  0  0  0  0  0  0  0  0
    6.0082   -8.4545   25.4903 H   0  0  0  0  0  0  0  0  0  0  0  0
    6.1816  -11.1820   24.7207 H   0  0  0  0  0  0  0  0  0  0  0  0
    7.1386  -10.5100   23.6253 H   0  0  0  0  0  0  0  0  0  0  0  0
    3.8713   -9.7353   23.2432 H   0  0  0  0  0  0  0  0  0  0  0  0
    4.9647   -7.2154   22.9535 H   0  0  0  0  0  0  0  0  0  0  0  0
    6.1882   -7.1630   22.8204 H   0  0  0  0  0  0  0  0  0  0  0  0
    7.0884   -5.9475   20.9879 H   0  0  0  0  0  0  0  0  0  0  0  0
   10.9461   -4.9739   17.2352 H   0  0  0  0  0  0  0  0  0  0  0  0
   13.2518   -4.3870   18.4229 H   0  0  0  0  0  0  0  0  0  0  0  0
   12.8613   -5.0073   20.8891 H   0  0  0  0  0  0  0  0  0  0  0  0
    5.5364  -11.5153   23.1639 H   0  0  0  0  0  0  0  0  0  0  0  0
    2.3562  -13.6631   23.5820 H   0  0  0  0  0  0  0  0  0  0  0  0
    3.8060  -13.9886   24.3325 H   0  0  0  0  0  0  0  0  0  0  0  0
    2.0227  -15.3985   20.7786 H   0  0  0  0  0  0  0  0  0  0  0  0
    4.7278  -18.1760   22.2541 H   0  0  0  0  0  0  0  0  0  0  0  0
    5.0632  -16.0565   23.5974 H   0  0  0  0  0  0  0  0  0  0  0  0
  1  2  1  0
  2  3  1  0
  3  4  1  0
  4  5  1  0
  5  6  1  0
  6  7  2  0
  6  8  1  0
  8  9  1  0
  9 10  2  0
 10 11  1  0
 11 12  1  0
  3 13  1  0
 13 14  1  0
 14 15  2  0
 14 16  1  0
 16 17  1  0
 17 18  2  0
 18 19  1  0
 19 20  2  0
 20 21  1  0
 12  8  2  0
 21 17  1  0
  1 22  1  0
  1 23  1  0
  1 24  1  0
  2 25  1  0
  2 26  1  0
  3 27  1  0
  4 28  1  0
  4 29  1  0
  5 30  1  0
  9 31  1  0
 10 32  1  0
 11 33  1  0
 13 34  1  0
 16 35  1  0
 16 36  1  0
 18 37  1  0
 20 38  1  0
 21 39  1  0
M  END
>  <Energy>  (807) 
1083.0388576414896

>  <compound_id>  (807) 
10600

>  <target_id>  (807) 
1

>  <reference_id>  (807) 
81

>  <inspiration_ids>  (807) 
[116, 81]

>  <energy_score>  (807) 
1017.1534193073605

>  <distance_score>  (807) 
7.488026658665205

>  <path>  (807) 
/opt/xchem-fragalysis-2/maxwin/BulkDock/SCRATCH/511021/C10600-P81/C10600-P81.minimised.mol

>  <scratch_subdir>  (807) 
/opt/xchem-fragalysis-2/maxwin/BulkDock/SCRATCH/511021/C10600-P81

>  <fragmenstein_runtime>  (807) 
18.135818481445312

>  <fragmenstein_outcome>  (807) 
too moved

>  <fragmenstein_mode>  (807) 
expansion

>  <fragmenstein_error>  (807) 


$$$$
C12668-P116
     RDKit          3D

 39 40  0  0  0  0  0  0  0  0999 V2000
    6.1959   -7.7158   24.8801 C   0  0  0  0  0  0  0  0  0  0  0  0
    5.3897   -7.2626   23.6428 C   0  0  0  0  0  0  0  0  0  0  0  0
    4.7823   -8.3223   22.1488 C   0  0  0  0  0  0  0  0  0  0  0  0
    6.3333   -7.4930   20.8129 C   0  0  0  0  0  0  0  0  0  0  0  0
    7.5578   -6.7932   19.3778 N   0  0  0  0  0  0  0  0  0  0  0  0
    9.5062   -6.1104   19.4984 C   0  0  0  0  0  0  0  0  0  0  0  0
   10.0453   -6.2179   20.5855 O   0  0  0  0  0  0  0  0  0  0  0  0
   10.7640   -5.2662   18.2931 C   0  0  0  0  0  0  0  0  0  0  0  0
   12.2369   -4.9210   19.0876 C   0  0  0  0  0  0  0  0  0  0  0  0
   13.1362   -4.2504   18.3793 N   0  0  0  0  0  0  0  0  0  0  0  0
   12.5905   -4.2280   17.1736 N   0  0  0  0  0  0  0  0  0  0  0  0
   11.2885   -4.6918   17.0698 C   0  0  0  0  0  0  0  0  0  0  0  0
    4.7571  -10.2975   23.0039 N   0  0  0  0  0  0  0  0  0  0  0  0
    3.4620  -11.8406   22.9174 C   0  0  0  0  0  0  0  0  0  0  0  0
    2.4862  -12.0126   22.2587 O   0  0  0  0  0  0  0  0  0  0  0  0
    3.5808  -13.1818   24.1696 C   0  0  0  0  0  0  0  0  0  0  0  0
    2.0812  -13.1212   25.3442 C   0  0  0  0  0  0  0  0  0  0  0  0
    1.9347  -13.5837   26.7075 C   0  0  0  0  0  0  0  0  0  0  0  0
    0.8784  -13.0927   27.3899 N   0  0  0  0  0  0  0  0  0  0  0  0
    0.3402  -12.2988   26.5210 C   0  0  0  0  0  0  0  0  0  0  0  0
    0.9660  -12.3412   25.2704 N   0  0  0  0  0  0  0  0  0  0  0  0
    7.0689   -8.3353   24.6669 H   0  0  0  0  0  0  0  0  0  0  0  0
    6.5806   -6.8182   25.3817 H   0  0  0  0  0  0  0  0  0  0  0  0
    5.5737   -8.2029   25.6288 H   0  0  0  0  0  0  0  0  0  0  0  0
    4.5145   -6.7853   24.0680 H   0  0  0  0  0  0  0  0  0  0  0  0
    5.9943   -6.4600   23.2410 H   0  0  0  0  0  0  0  0  0  0  0  0
    3.8076   -8.1238   22.5660 H   0  0  0  0  0  0  0  0  0  0  0  0
    6.5034   -6.6535   21.4562 H   0  0  0  0  0  0  0  0  0  0  0  0
    5.9464   -7.8197   19.8194 H   0  0  0  0  0  0  0  0  0  0  0  0
    7.1877   -6.5725   18.4538 H   0  0  0  0  0  0  0  0  0  0  0  0
   12.3952   -5.1757   20.1309 H   0  0  0  0  0  0  0  0  0  0  0  0
   13.1479   -3.8455   16.4191 H   0  0  0  0  0  0  0  0  0  0  0  0
   10.9272   -4.5026   16.0770 H   0  0  0  0  0  0  0  0  0  0  0  0
    5.5543  -10.4864   23.6184 H   0  0  0  0  0  0  0  0  0  0  0  0
    4.3369  -13.1222   24.9716 H   0  0  0  0  0  0  0  0  0  0  0  0
    3.5108  -14.1809   23.7625 H   0  0  0  0  0  0  0  0  0  0  0  0
    2.5862  -14.2169   27.2600 H   0  0  0  0  0  0  0  0  0  0  0  0
   -0.5249  -11.6904   26.7449 H   0  0  0  0  0  0  0  0  0  0  0  0
    0.6690  -11.8030   24.4719 H   0  0  0  0  0  0  0  0  0  0  0  0
  1  2  1  0
  2  3  1  0
  3  4  1  0
  4  5  1  0
  5  6  1  0
  6  7  2  0
  6  8  1  0
  8  9  1  0
  9 10  2  0
 10 11  1  0
 11 12  1  0
  3 13  1  0
 13 14  1  0
 14 15  2  0
 14 16  1  0
 16 17  1  0
 17 18  2  0
 18 19  1  0
 19 20  2  0
 20 21  1  0
 12  8  2  0
 21 17  1  0
  1 22  1  0
  1 23  1  0
  1 24  1  0
  2 25  1  0
  2 26  1  0
  3 27  1  0
  4 28  1  0
  4 29  1  0
  5 30  1  0
  9 31  1  0
 11 32  1  0
 12 33  1  0
 13 34  1  0
 16 35  1  0
 16 36  1  0
 18 37  1  0
 20 38  1  0
 21 39  1  0
M  END
>  <Energy>  (808) 
1020.5432556786094

>  <compound_id>  (808) 
12668

>  <target_id>  (808) 
1

>  <reference_id>  (808) 
116

>  <inspiration_ids>  (808) 
[116, 81]

>  <energy_score>  (808) 
984.6961466152196

>  <distance_score>  (808) 
4.510283908781581

>  <path>  (808) 
/opt/xchem-fragalysis-2/maxwin/BulkDock/SCRATCH/511021/C12668-P116/C12668-P116.minimised.mol

>  <scratch_subdir>  (808) 
/opt/xchem-fragalysis-2/maxwin/BulkDock/SCRATCH/511021/C12668-P116

>  <fragmenstein_runtime>  (808) 
13.865946292877197

>  <fragmenstein_outcome>  (808) 
too moved

>  <fragmenstein_mode>  (808) 
expansion

>  <fragmenstein_error>  (808) 


$$$$
C12668-P81
     RDKit          3D

 39 40  0  0  0  0  0  0  0  0999 V2000
    0.3588   -7.7771   23.1145 C   0  0  0  0  0  0  0  0  0  0  0  0
    1.3926   -8.2223   22.1056 C   0  0  0  0  0  0  0  0  0  0  0  0
    3.2274   -8.2515   22.8196 C   0  0  0  0  0  0  0  0  0  0  0  0
    4.6896   -6.6286   22.7971 C   0  0  0  0  0  0  0  0  0  0  0  0
    3.9527   -4.9252   21.3516 N   0  0  0  0  0  0  0  0  0  0  0  0
    4.9717   -4.0031   19.8923 C   0  0  0  0  0  0  0  0  0  0  0  0
    6.0079   -4.4764   19.7306 O   0  0  0  0  0  0  0  0  0  0  0  0
    4.7718   -2.5095   18.6009 C   0  0  0  0  0  0  0  0  0  0  0  0
    4.1347   -2.5620   17.3959 C   0  0  0  0  0  0  0  0  0  0  0  0
    4.6654   -1.7267   16.3705 N   0  0  0  0  0  0  0  0  0  0  0  0
    5.7791   -1.2062   16.7659 N   0  0  0  0  0  0  0  0  0  0  0  0
    5.7369   -1.4284   18.0896 C   0  0  0  0  0  0  0  0  0  0  0  0
    3.7334  -10.2501   23.0380 N   0  0  0  0  0  0  0  0  0  0  0  0
    2.6682  -11.8080   23.1173 C   0  0  0  0  0  0  0  0  0  0  0  0
    1.4581  -11.8387   22.9436 O   0  0  0  0  0  0  0  0  0  0  0  0
    3.1744  -13.2721   23.5695 C   0  0  0  0  0  0  0  0  0  0  0  0
    4.1713  -14.4117   24.5121 C   0  0  0  0  0  0  0  0  0  0  0  0
    4.7354  -14.5268   25.7914 C   0  0  0  0  0  0  0  0  0  0  0  0
    5.5201  -15.6468   25.9197 N   0  0  0  0  0  0  0  0  0  0  0  0
    5.5143  -16.2204   24.7478 C   0  0  0  0  0  0  0  0  0  0  0  0
    4.7533  -15.5264   23.8590 N   0  0  0  0  0  0  0  0  0  0  0  0
    0.4625   -6.6972   23.2731 H   0  0  0  0  0  0  0  0  0  0  0  0
    0.4033   -8.0564   24.1339 H   0  0  0  0  0  0  0  0  0  0  0  0
   -0.6007   -8.1275   22.7286 H   0  0  0  0  0  0  0  0  0  0  0  0
    1.1198   -9.1046   21.5080 H   0  0  0  0  0  0  0  0  0  0  0  0
    1.1595   -7.3960   21.4078 H   0  0  0  0  0  0  0  0  0  0  0  0
    2.7082   -7.8361   23.7511 H   0  0  0  0  0  0  0  0  0  0  0  0
    5.6897   -7.0492   22.4956 H   0  0  0  0  0  0  0  0  0  0  0  0
    5.1086   -6.4303   23.7970 H   0  0  0  0  0  0  0  0  0  0  0  0
    3.1132   -4.4283   21.5118 H   0  0  0  0  0  0  0  0  0  0  0  0
    3.4989   -3.4010   17.1181 H   0  0  0  0  0  0  0  0  0  0  0  0
    6.3867   -0.6455   16.1701 H   0  0  0  0  0  0  0  0  0  0  0  0
    6.5447   -0.9136   18.6340 H   0  0  0  0  0  0  0  0  0  0  0  0
    4.7424  -10.5059   23.1273 H   0  0  0  0  0  0  0  0  0  0  0  0
    2.8847  -13.8774   22.7046 H   0  0  0  0  0  0  0  0  0  0  0  0
    3.8915  -12.6733   24.0047 H   0  0  0  0  0  0  0  0  0  0  0  0
    4.6441  -13.9123   26.6686 H   0  0  0  0  0  0  0  0  0  0  0  0
    6.0349  -17.1309   24.4839 H   0  0  0  0  0  0  0  0  0  0  0  0
    4.5881  -15.7911   22.8981 H   0  0  0  0  0  0  0  0  0  0  0  0
  1  2  1  0
  2  3  1  0
  3  4  1  0
  4  5  1  0
  5  6  1  0
  6  7  2  0
  6  8  1  0
  8  9  1  0
  9 10  2  0
 10 11  1  0
 11 12  1  0
  3 13  1  0
 13 14  1  0
 14 15  2  0
 14 16  1  0
 16 17  1  0
 17 18  2  0
 18 19  1  0
 19 20  2  0
 20 21  1  0
 12  8  2  0
 21 17  1  0
  1 22  1  0
  1 23  1  0
  1 24  1  0
  2 25  1  0
  2 26  1  0
  3 27  1  0
  4 28  1  0
  4 29  1  0
  5 30  1  0
  9 31  1  0
 11 32  1  0
 12 33  1  0
 13 34  1  0
 16 35  1  0
 16 36  1  0
 18 37  1  0
 20 38  1  0
 21 39  1  0
M  END
>  <Energy>  (809) 
1113.1745356606946

>  <compound_id>  (809) 
12668

>  <target_id>  (809) 
1

>  <reference_id>  (809) 
81

>  <inspiration_ids>  (809) 
[116, 81]

>  <energy_score>  (809) 
1077.3274265972905

>  <distance_score>  (809) 
7.634358218625938

>  <path>  (809) 
/opt/xchem-fragalysis-2/maxwin/BulkDock/SCRATCH/511021/C12668-P81/C12668-P81.minimised.mol

>  <scratch_subdir>  (809) 
/opt/xchem-fragalysis-2/maxwin/BulkDock/SCRATCH/511021/C12668-P81

>  <fragmenstein_runtime>  (809) 
29.16542410850525

>  <fragmenstein_outcome>  (809) 
too moved

>  <fragmenstein_mode>  (809) 
expansion

>  <fragmenstein_error>  (809) 


$$$$
C12669-P116
     RDKit          3D

 42 43  0  0  0  0  0  0  0  0999 V2000
    6.4143   -6.3330   25.8506 C   0  0  0  0  0  0  0  0  0  0  0  0
    5.4815   -5.7817   24.7723 C   0  0  0  0  0  0  0  0  0  0  0  0
    4.7146   -6.8970   23.9954 C   0  0  0  0  0  0  0  0  0  0  0  0
    5.6203   -7.5329   22.2804 C   0  0  0  0  0  0  0  0  0  0  0  0
    6.9059   -6.8394   21.0670 N   0  0  0  0  0  0  0  0  0  0  0  0
    8.8394   -7.4810   20.3582 C   0  0  0  0  0  0  0  0  0  0  0  0
    9.4794   -8.5496   20.4862 O   0  0  0  0  0  0  0  0  0  0  0  0
    9.8422   -6.0089   19.5923 C   0  0  0  0  0  0  0  0  0  0  0  0
   11.5541   -5.3488   19.3550 C   0  0  0  0  0  0  0  0  0  0  0  0
   12.5558   -5.2128   20.2163 N   0  0  0  0  0  0  0  0  0  0  0  0
   11.8654   -5.3839   21.2972 N   0  0  0  0  0  0  0  0  0  0  0  0
   10.7288   -6.0923   21.0013 C   0  0  0  0  0  0  0  0  0  0  0  0
    2.7976   -6.8251   24.2303 N   0  0  0  0  0  0  0  0  0  0  0  0
    1.9447   -5.8963   24.9896 C   0  0  0  0  0  0  0  0  0  0  0  0
    2.2396   -4.9964   25.7305 O   0  0  0  0  0  0  0  0  0  0  0  0
    0.2548   -6.1968   24.5357 C   0  0  0  0  0  0  0  0  0  0  0  0
   -0.9622   -6.5030   25.3928 C   0  0  0  0  0  0  0  0  0  0  0  0
   -1.1893   -7.5814   26.2244 C   0  0  0  0  0  0  0  0  0  0  0  0
   -2.0273   -7.1942   27.2509 N   0  0  0  0  0  0  0  0  0  0  0  0
   -2.6118   -6.1119   26.8392 C   0  0  0  0  0  0  0  0  0  0  0  0
   -2.2129   -5.8580   25.5532 N   0  0  0  0  0  0  0  0  0  0  0  0
   -3.1480   -5.1853   24.6607 C   0  0  0  0  0  0  0  0  0  0  0  0
    6.9721   -5.5152   26.3178 H   0  0  0  0  0  0  0  0  0  0  0  0
    5.8604   -6.8522   26.6376 H   0  0  0  0  0  0  0  0  0  0  0  0
    7.1374   -7.0363   25.4256 H   0  0  0  0  0  0  0  0  0  0  0  0
    6.1018   -5.2260   24.0744 H   0  0  0  0  0  0  0  0  0  0  0  0
    4.7986   -5.0663   25.2374 H   0  0  0  0  0  0  0  0  0  0  0  0
    4.9587   -7.7716   24.6110 H   0  0  0  0  0  0  0  0  0  0  0  0
    6.4045   -7.3726   23.0570 H   0  0  0  0  0  0  0  0  0  0  0  0
    4.7158   -8.0738   22.1661 H   0  0  0  0  0  0  0  0  0  0  0  0
    6.7629   -5.8768   20.8305 H   0  0  0  0  0  0  0  0  0  0  0  0
   11.7492   -4.8513   18.3857 H   0  0  0  0  0  0  0  0  0  0  0  0
   12.3532   -5.3213   22.1846 H   0  0  0  0  0  0  0  0  0  0  0  0
   10.6644   -6.9226   21.6942 H   0  0  0  0  0  0  0  0  0  0  0  0
    2.2205   -7.4958   23.7777 H   0  0  0  0  0  0  0  0  0  0  0  0
    0.2895   -6.7944   23.6353 H   0  0  0  0  0  0  0  0  0  0  0  0
   -0.0090   -5.2973   23.9785 H   0  0  0  0  0  0  0  0  0  0  0  0
   -0.6006   -8.4849   26.3220 H   0  0  0  0  0  0  0  0  0  0  0  0
   -3.3818   -5.5554   27.3586 H   0  0  0  0  0  0  0  0  0  0  0  0
   -2.9877   -4.1214   24.5288 H   0  0  0  0  0  0  0  0  0  0  0  0
   -3.1735   -5.6833   23.7083 H   0  0  0  0  0  0  0  0  0  0  0  0
   -4.1520   -5.2319   25.0921 H   0  0  0  0  0  0  0  0  0  0  0  0
  1  2  1  0
  2  3  1  0
  3  4  1  0
  4  5  1  0
  5  6  1  0
  6  7  2  0
  6  8  1  0
  8  9  1  0
  9 10  2  0
 10 11  1  0
 11 12  1  0
  3 13  1  0
 13 14  1  0
 14 15  2  0
 14 16  1  0
 16 17  1  0
 17 18  2  0
 18 19  1  0
 19 20  2  0
 20 21  1  0
 21 22  1  0
 12  8  2  0
 21 17  1  0
  1 23  1  0
  1 24  1  0
  1 25  1  0
  2 26  1  0
  2 27  1  0
  3 28  1  0
  4 29  1  0
  4 30  1  0
  5 31  1  0
  9 32  1  0
 11 33  1  0
 12 34  1  0
 13 35  1  0
 16 36  1  0
 16 37  1  0
 18 38  1  0
 20 39  1  0
 22 40  1  0
 22 41  1  0
 22 42  1  0
M  END
>  <Energy>  (810) 
777.01495526148244

>  <compound_id>  (810) 
12669

>  <target_id>  (810) 
1

>  <reference_id>  (810) 
116

>  <inspiration_ids>  (810) 
[116, 81]

>  <energy_score>  (810) 
738.1623757390893

>  <distance_score>  (810) 
7.040757824610838

>  <path>  (810) 
/opt/xchem-fragalysis-2/maxwin/BulkDock/SCRATCH/511021/C12669-P116/C12669-P116.minimised.mol

>  <scratch_subdir>  (810) 
/opt/xchem-fragalysis-2/maxwin/BulkDock/SCRATCH/511021/C12669-P116

>  <fragmenstein_runtime>  (810) 
24.584969997406006

>  <fragmenstein_outcome>  (810) 
too moved

>  <fragmenstein_mode>  (810) 
expansion

>  <fragmenstein_error>  (810) 


$$$$
C12669-P81
     RDKit          3D

 42 43  0  0  0  0  0  0  0  0999 V2000
    6.1960   -6.4178   18.4517 C   0  0  0  0  0  0  0  0  0  0  0  0
    6.8956   -7.1545   19.8798 C   0  0  0  0  0  0  0  0  0  0  0  0
    6.9882   -6.3956   21.7281 C   0  0  0  0  0  0  0  0  0  0  0  0
    7.7086   -4.8514   20.7196 C   0  0  0  0  0  0  0  0  0  0  0  0
    9.1524   -4.6441   20.2299 N   0  0  0  0  0  0  0  0  0  0  0  0
   10.5888   -5.7024   20.3308 C   0  0  0  0  0  0  0  0  0  0  0  0
   10.6605   -6.8904   20.7524 O   0  0  0  0  0  0  0  0  0  0  0  0
   12.1054   -5.1365   19.9841 C   0  0  0  0  0  0  0  0  0  0  0  0
   12.7815   -4.5784   18.8373 C   0  0  0  0  0  0  0  0  0  0  0  0
   14.0079   -4.1243   19.1046 N   0  0  0  0  0  0  0  0  0  0  0  0
   14.1410   -4.3669   20.4147 N   0  0  0  0  0  0  0  0  0  0  0  0
   13.0725   -5.0078   20.9698 C   0  0  0  0  0  0  0  0  0  0  0  0
    6.6086   -7.0131   23.3991 N   0  0  0  0  0  0  0  0  0  0  0  0
    7.4569   -8.1579   24.4191 C   0  0  0  0  0  0  0  0  0  0  0  0
    8.5347   -8.7201   24.2532 O   0  0  0  0  0  0  0  0  0  0  0  0
    6.6790   -8.5700   25.7021 C   0  0  0  0  0  0  0  0  0  0  0  0
    6.8642   -9.8410   26.5070 C   0  0  0  0  0  0  0  0  0  0  0  0
    6.4471  -10.0112   27.8236 C   0  0  0  0  0  0  0  0  0  0  0  0
    6.4208  -11.3202   28.1883 N   0  0  0  0  0  0  0  0  0  0  0  0
    6.9194  -11.9621   27.1601 C   0  0  0  0  0  0  0  0  0  0  0  0
    7.2545  -11.1067   26.1412 N   0  0  0  0  0  0  0  0  0  0  0  0
    7.8781  -11.5338   24.9191 C   0  0  0  0  0  0  0  0  0  0  0  0
    5.5260   -5.6070   18.6612 H   0  0  0  0  0  0  0  0  0  0  0  0
    6.8724   -6.2077   17.6566 H   0  0  0  0  0  0  0  0  0  0  0  0
    5.4483   -7.0925   18.0373 H   0  0  0  0  0  0  0  0  0  0  0  0
    6.0827   -7.7743   19.9135 H   0  0  0  0  0  0  0  0  0  0  0  0
    7.6775   -7.6694   19.5206 H   0  0  0  0  0  0  0  0  0  0  0  0
    7.4980   -5.6636   22.4166 H   0  0  0  0  0  0  0  0  0  0  0  0
    7.0395   -4.7733   19.8679 H   0  0  0  0  0  0  0  0  0  0  0  0
    7.7568   -3.9498   21.3621 H   0  0  0  0  0  0  0  0  0  0  0  0
    9.4144   -3.7776   19.9476 H   0  0  0  0  0  0  0  0  0  0  0  0
   12.4096   -4.4543   17.8281 H   0  0  0  0  0  0  0  0  0  0  0  0
   14.9944   -4.0678   20.8747 H   0  0  0  0  0  0  0  0  0  0  0  0
   13.0600   -5.2527   22.0218 H   0  0  0  0  0  0  0  0  0  0  0  0
    5.7054   -6.8064   23.7892 H   0  0  0  0  0  0  0  0  0  0  0  0
    5.6273   -8.4357   25.4856 H   0  0  0  0  0  0  0  0  0  0  0  0
    7.0260   -7.8804   26.4801 H   0  0  0  0  0  0  0  0  0  0  0  0
    6.0972   -9.2466   28.5003 H   0  0  0  0  0  0  0  0  0  0  0  0
    7.0706  -13.0330   27.1007 H   0  0  0  0  0  0  0  0  0  0  0  0
    8.8689  -11.0808   24.8628 H   0  0  0  0  0  0  0  0  0  0  0  0
    7.2342  -11.2404   24.0905 H   0  0  0  0  0  0  0  0  0  0  0  0
    7.9969  -12.6188   24.9300 H   0  0  0  0  0  0  0  0  0  0  0  0
  1  2  1  0
  2  3  1  0
  3  4  1  0
  4  5  1  0
  5  6  1  0
  6  7  2  0
  6  8  1  0
  8  9  1  0
  9 10  2  0
 10 11  1  0
 11 12  1  0
  3 13  1  0
 13 14  1  0
 14 15  2  0
 14 16  1  0
 16 17  1  0
 17 18  2  0
 18 19  1  0
 19 20  2  0
 20 21  1  0
 21 22  1  0
 12  8  2  0
 21 17  1  0
  1 23  1  0
  1 24  1  0
  1 25  1  0
  2 26  1  0
  2 27  1  0
  3 28  1  0
  4 29  1  0
  4 30  1  0
  5 31  1  0
  9 32  1  0
 11 33  1  0
 12 34  1  0
 13 35  1  0
 16 36  1  0
 16 37  1  0
 18 38  1  0
 20 39  1  0
 22 40  1  0
 22 41  1  0
 22 42  1  0
M  END
>  <Energy>  (811) 
443.38090387545998

>  <compound_id>  (811) 
12669

>  <target_id>  (811) 
1

>  <reference_id>  (811) 
81

>  <inspiration_ids>  (811) 
[116, 81]

>  <energy_score>  (811) 
404.5283243530695

>  <distance_score>  (811) 
7.450552124484874

>  <path>  (811) 
/opt/xchem-fragalysis-2/maxwin/BulkDock/SCRATCH/511021/C12669-P81/C12669-P81.minimised.mol

>  <scratch_subdir>  (811) 
/opt/xchem-fragalysis-2/maxwin/BulkDock/SCRATCH/511021/C12669-P81

>  <fragmenstein_runtime>  (811) 
23.430955410003662

>  <fragmenstein_outcome>  (811) 
too moved

>  <fragmenstein_mode>  (811) 
expansion

>  <fragmenstein_error>  (811) 


$$$$
C12670-P116
     RDKit          3D

 46 47  0  0  0  0  0  0  0  0999 V2000
    6.0140   -5.0687   25.8947 C   0  0  0  0  0  0  0  0  0  0  0  0
    6.6390   -5.8192   24.6218 C   0  0  0  0  0  0  0  0  0  0  0  0
    5.8628   -6.0957   23.3873 N   0  0  0  0  0  0  0  0  0  0  0  0
    5.5012   -7.1515   24.5387 C   0  0  0  0  0  0  0  0  0  0  0  0
    6.5540   -8.1420   25.5085 C   0  0  0  0  0  0  0  0  0  0  0  0
    6.1899   -9.1987   26.4857 N   0  0  0  0  0  0  0  0  0  0  0  0
    5.6967   -9.1075   27.8418 C   0  0  0  0  0  0  0  0  0  0  0  0
    5.3802   -8.1541   28.4943 O   0  0  0  0  0  0  0  0  0  0  0  0
    5.6895  -10.5639   28.5994 C   0  0  0  0  0  0  0  0  0  0  0  0
    4.6215  -11.5078   28.7421 O   0  0  0  0  0  0  0  0  0  0  0  0
    3.5181  -11.0921   29.5760 C   0  0  0  0  0  0  0  0  0  0  0  0
    2.4343  -12.1536   29.7500 C   0  0  0  0  0  0  0  0  0  0  0  0
    2.4194  -13.0433   30.7353 N   0  0  0  0  0  0  0  0  0  0  0  0
    1.3180  -13.8335   30.5544 C   0  0  0  0  0  0  0  0  0  0  0  0
    0.5710  -13.3709   29.5086 C   0  0  0  0  0  0  0  0  0  0  0  0
    1.2364  -12.2573   29.0625 N   0  0  0  0  0  0  0  0  0  0  0  0
    0.6288  -11.3474   28.1319 C   0  0  0  0  0  0  0  0  0  0  0  0
    6.4399   -6.3331   21.6836 C   0  0  0  0  0  0  0  0  0  0  0  0
    6.6460   -7.3972   21.4580 O   0  0  0  0  0  0  0  0  0  0  0  0
    6.6458   -5.2872   20.0183 C   0  0  0  0  0  0  0  0  0  0  0  0
    5.6400   -4.5523   19.3374 C   0  0  0  0  0  0  0  0  0  0  0  0
    5.0011   -5.2145   18.3398 N   0  0  0  0  0  0  0  0  0  0  0  0
    5.9167   -6.0154   17.8806 N   0  0  0  0  0  0  0  0  0  0  0  0
    6.7652   -6.2270   18.8868 C   0  0  0  0  0  0  0  0  0  0  0  0
    5.7115   -5.7551   26.6913 H   0  0  0  0  0  0  0  0  0  0  0  0
    5.1489   -4.4609   25.6064 H   0  0  0  0  0  0  0  0  0  0  0  0
    6.7680   -4.4092   26.3390 H   0  0  0  0  0  0  0  0  0  0  0  0
    7.5529   -6.3329   24.9453 H   0  0  0  0  0  0  0  0  0  0  0  0
    6.8171   -4.9004   24.1705 H   0  0  0  0  0  0  0  0  0  0  0  0
    4.7215   -6.6987   25.0864 H   0  0  0  0  0  0  0  0  0  0  0  0
    4.9772   -7.8527   23.9326 H   0  0  0  0  0  0  0  0  0  0  0  0
    7.1047   -7.4988   26.2023 H   0  0  0  0  0  0  0  0  0  0  0  0
    7.2891   -8.5983   24.8391 H   0  0  0  0  0  0  0  0  0  0  0  0
    6.2771  -10.1782   26.2301 H   0  0  0  0  0  0  0  0  0  0  0  0
    6.0832  -10.3614   29.6047 H   0  0  0  0  0  0  0  0  0  0  0  0
    6.4955  -11.1321   28.1166 H   0  0  0  0  0  0  0  0  0  0  0  0
    3.1015  -10.2483   29.0511 H   0  0  0  0  0  0  0  0  0  0  0  0
    3.9026  -10.8255   30.5635 H   0  0  0  0  0  0  0  0  0  0  0  0
    1.1184  -14.6800   31.1971 H   0  0  0  0  0  0  0  0  0  0  0  0
   -0.3651  -13.7017   29.0815 H   0  0  0  0  0  0  0  0  0  0  0  0
    1.1249  -10.3865   28.1880 H   0  0  0  0  0  0  0  0  0  0  0  0
    0.6878  -11.7759   27.1307 H   0  0  0  0  0  0  0  0  0  0  0  0
   -0.4204  -11.2107   28.4089 H   0  0  0  0  0  0  0  0  0  0  0  0
    5.2648   -3.6164   19.7202 H   0  0  0  0  0  0  0  0  0  0  0  0
    5.7418   -6.5326   17.0323 H   0  0  0  0  0  0  0  0  0  0  0  0
    7.0572   -7.2155   19.1099 H   0  0  0  0  0  0  0  0  0  0  0  0
  1  2  1  0
  2  3  1  0
  3  4  1  0
  4  5  1  0
  5  6  1  0
  6  7  1  0
  7  8  2  0
  7  9  1  0
  9 10  1  0
 10 11  1  0
 11 12  1  0
 12 13  2  0
 13 14  1  0
 14 15  2  0
 15 16  1  0
 16 17  1  0
  3 18  1  0
 18 19  2  0
 18 20  1  0
 20 21  1  0
 21 22  2  0
 22 23  1  0
 23 24  1  0
 16 12  1  0
 24 20  2  0
  1 25  1  0
  1 26  1  0
  1 27  1  0
  2 28  1  0
  2 29  1  0
  4 30  1  0
  4 31  1  0
  5 32  1  0
  5 33  1  0
  6 34  1  0
  9 35  1  0
  9 36  1  0
 11 37  1  0
 11 38  1  0
 14 39  1  0
 15 40  1  0
 17 41  1  0
 17 42  1  0
 17 43  1  0
 21 44  1  0
 23 45  1  0
 24 46  1  0
M  END
>  <Energy>  (812) 
472.98779978422641

>  <compound_id>  (812) 
12670

>  <target_id>  (812) 
1

>  <reference_id>  (812) 
116

>  <inspiration_ids>  (812) 
[116, 81]

>  <energy_score>  (812) 
394.3936309606022

>  <distance_score>  (812) 
6.541099934928039

>  <path>  (812) 
/opt/xchem-fragalysis-2/maxwin/BulkDock/SCRATCH/511021/C12670-P116/C12670-P116.minimised.mol

>  <scratch_subdir>  (812) 
/opt/xchem-fragalysis-2/maxwin/BulkDock/SCRATCH/511021/C12670-P116

>  <fragmenstein_runtime>  (812) 
15.893480062484741

>  <fragmenstein_outcome>  (812) 
too moved

>  <fragmenstein_mode>  (812) 
expansion

>  <fragmenstein_error>  (812) 


$$$$
C12670-P81
     RDKit          3D

 46 47  0  0  0  0  0  0  0  0999 V2000
    7.0008   -4.9922   19.6151 C   0  0  0  0  0  0  0  0  0  0  0  0
    5.6648   -4.6973   19.4703 C   0  0  0  0  0  0  0  0  0  0  0  0
    4.8528   -5.2210   18.0645 N   0  0  0  0  0  0  0  0  0  0  0  0
    5.0724   -6.5811   18.7147 C   0  0  0  0  0  0  0  0  0  0  0  0
    6.7114   -7.2009   19.8446 C   0  0  0  0  0  0  0  0  0  0  0  0
    6.3002   -7.1722   21.7582 N   0  0  0  0  0  0  0  0  0  0  0  0
    6.8588   -6.4107   22.8737 C   0  0  0  0  0  0  0  0  0  0  0  0
    7.6636   -5.5437   22.8947 O   0  0  0  0  0  0  0  0  0  0  0  0
    6.1261   -7.1974   24.1066 C   0  0  0  0  0  0  0  0  0  0  0  0
    6.2101   -8.0085   25.3530 O   0  0  0  0  0  0  0  0  0  0  0  0
    7.1798   -9.0585   25.5654 C   0  0  0  0  0  0  0  0  0  0  0  0
    6.9168   -9.6399   26.9363 C   0  0  0  0  0  0  0  0  0  0  0  0
    6.4080  -10.8384   27.1834 N   0  0  0  0  0  0  0  0  0  0  0  0
    6.3261  -10.9642   28.5405 C   0  0  0  0  0  0  0  0  0  0  0  0
    6.8185   -9.8381   29.1457 C   0  0  0  0  0  0  0  0  0  0  0  0
    7.1964   -9.0064   28.1248 N   0  0  0  0  0  0  0  0  0  0  0  0
    7.8488   -7.7316   28.3142 C   0  0  0  0  0  0  0  0  0  0  0  0
    3.5398   -4.3077   17.8513 C   0  0  0  0  0  0  0  0  0  0  0  0
    2.4223   -4.4541   18.2462 O   0  0  0  0  0  0  0  0  0  0  0  0
    3.5951   -3.1537   16.9350 C   0  0  0  0  0  0  0  0  0  0  0  0
    4.2016   -1.9677   16.7958 C   0  0  0  0  0  0  0  0  0  0  0  0
    4.2855   -1.5371   15.5142 N   0  0  0  0  0  0  0  0  0  0  0  0
    3.3921   -2.2745   14.8846 N   0  0  0  0  0  0  0  0  0  0  0  0
    2.8844   -3.2109   15.7169 C   0  0  0  0  0  0  0  0  0  0  0  0
    7.0428   -5.6104   18.7342 H   0  0  0  0  0  0  0  0  0  0  0  0
    7.8684   -4.5005   20.0176 H   0  0  0  0  0  0  0  0  0  0  0  0
    7.0650   -5.4294   20.5386 H   0  0  0  0  0  0  0  0  0  0  0  0
    4.7003   -4.6360   19.9604 H   0  0  0  0  0  0  0  0  0  0  0  0
    5.5280   -3.6133   19.6995 H   0  0  0  0  0  0  0  0  0  0  0  0
    5.7910   -6.7025   17.8678 H   0  0  0  0  0  0  0  0  0  0  0  0
    4.6309   -7.4166   18.2127 H   0  0  0  0  0  0  0  0  0  0  0  0
    7.5520   -7.5918   19.4419 H   0  0  0  0  0  0  0  0  0  0  0  0
    6.0035   -7.8995   19.6966 H   0  0  0  0  0  0  0  0  0  0  0  0
    5.5614   -7.7687   22.1033 H   0  0  0  0  0  0  0  0  0  0  0  0
    7.0539   -7.7344   23.9127 H   0  0  0  0  0  0  0  0  0  0  0  0
    5.1050   -7.3802   23.7953 H   0  0  0  0  0  0  0  0  0  0  0  0
    8.1981   -8.6597   25.5096 H   0  0  0  0  0  0  0  0  0  0  0  0
    7.0726   -9.8510   24.8201 H   0  0  0  0  0  0  0  0  0  0  0  0
    5.9449  -11.8639   29.0061 H   0  0  0  0  0  0  0  0  0  0  0  0
    6.9579   -9.5828   30.1872 H   0  0  0  0  0  0  0  0  0  0  0  0
    8.4543   -7.4853   27.4410 H   0  0  0  0  0  0  0  0  0  0  0  0
    8.4988   -7.7966   29.1912 H   0  0  0  0  0  0  0  0  0  0  0  0
    7.0797   -6.9741   28.4775 H   0  0  0  0  0  0  0  0  0  0  0  0
    4.8340   -1.5360   17.5619 H   0  0  0  0  0  0  0  0  0  0  0  0
    3.2086   -2.1091   13.8980 H   0  0  0  0  0  0  0  0  0  0  0  0
    2.1669   -3.9249   15.3370 H   0  0  0  0  0  0  0  0  0  0  0  0
  1  2  1  0
  2  3  1  0
  3  4  1  0
  4  5  1  0
  5  6  1  0
  6  7  1  0
  7  8  2  0
  7  9  1  0
  9 10  1  0
 10 11  1  0
 11 12  1  0
 12 13  2  0
 13 14  1  0
 14 15  2  0
 15 16  1  0
 16 17  1  0
  3 18  1  0
 18 19  2  0
 18 20  1  0
 20 21  1  0
 21 22  2  0
 22 23  1  0
 23 24  1  0
 16 12  1  0
 24 20  2  0
  1 25  1  0
  1 26  1  0
  1 27  1  0
  2 28  1  0
  2 29  1  0
  4 30  1  0
  4 31  1  0
  5 32  1  0
  5 33  1  0
  6 34  1  0
  9 35  1  0
  9 36  1  0
 11 37  1  0
 11 38  1  0
 14 39  1  0
 15 40  1  0
 17 41  1  0
 17 42  1  0
 17 43  1  0
 21 44  1  0
 23 45  1  0
 24 46  1  0
M  END
>  <Energy>  (813) 
564.04987305531677

>  <compound_id>  (813) 
12670

>  <target_id>  (813) 
1

>  <reference_id>  (813) 
81

>  <inspiration_ids>  (813) 
[116, 81]

>  <energy_score>  (813) 
485.4557042317052

>  <distance_score>  (813) 
8.474555204608077

>  <path>  (813) 
/opt/xchem-fragalysis-2/maxwin/BulkDock/SCRATCH/511021/C12670-P81/C12670-P81.minimised.mol

>  <scratch_subdir>  (813) 
/opt/xchem-fragalysis-2/maxwin/BulkDock/SCRATCH/511021/C12670-P81

>  <fragmenstein_runtime>  (813) 
17.19568109512329

>  <fragmenstein_outcome>  (813) 
too moved

>  <fragmenstein_mode>  (813) 
expansion

>  <fragmenstein_error>  (813) 


$$$$
C10601-P116
     RDKit          3D

 46 47  0  0  0  0  0  0  0  0999 V2000
    8.8251   -9.5793   18.6862 C   0  0  0  0  0  0  0  0  0  0  0  0
    9.2821   -8.1285   19.7100 C   0  0  0  0  0  0  0  0  0  0  0  0
    9.5368   -6.2699   19.3105 N   0  0  0  0  0  0  0  0  0  0  0  0
    7.3910   -6.7468   19.4331 C   0  0  0  0  0  0  0  0  0  0  0  0
    6.3198   -7.2265   21.3364 C   0  0  0  0  0  0  0  0  0  0  0  0
    4.7823   -8.4334   22.2079 N   0  0  0  0  0  0  0  0  0  0  0  0
    4.7405  -10.4800   22.5678 C   0  0  0  0  0  0  0  0  0  0  0  0
    5.7622  -11.0772   22.3563 O   0  0  0  0  0  0  0  0  0  0  0  0
    3.2024  -11.8869   23.0204 C   0  0  0  0  0  0  0  0  0  0  0  0
    1.6733  -12.4409   23.5273 O   0  0  0  0  0  0  0  0  0  0  0  0
    1.4197  -12.5820   25.0618 C   0  0  0  0  0  0  0  0  0  0  0  0
    0.6141  -12.1159   26.4124 C   0  0  0  0  0  0  0  0  0  0  0  0
    0.4850  -10.8359   26.8320 N   0  0  0  0  0  0  0  0  0  0  0  0
   -0.0793  -10.8634   28.0748 C   0  0  0  0  0  0  0  0  0  0  0  0
   -0.2536  -12.1462   28.4950 C   0  0  0  0  0  0  0  0  0  0  0  0
    0.4324  -12.8900   27.5653 N   0  0  0  0  0  0  0  0  0  0  0  0
    1.1822  -14.0254   28.0398 C   0  0  0  0  0  0  0  0  0  0  0  0
   10.6316   -5.3737   17.8155 C   0  0  0  0  0  0  0  0  0  0  0  0
   11.1249   -6.1139   16.9672 O   0  0  0  0  0  0  0  0  0  0  0  0
   11.1855   -3.8790   17.5207 C   0  0  0  0  0  0  0  0  0  0  0  0
   11.2631   -3.3456   16.1368 C   0  0  0  0  0  0  0  0  0  0  0  0
   12.3195   -2.4794   16.0664 C   0  0  0  0  0  0  0  0  0  0  0  0
   12.9692   -2.6501   17.2390 N   0  0  0  0  0  0  0  0  0  0  0  0
   12.3837   -3.5003   18.0858 N   0  0  0  0  0  0  0  0  0  0  0  0
    9.6531  -10.3202   18.6774 H   0  0  0  0  0  0  0  0  0  0  0  0
    8.7357   -9.7019   17.6069 H   0  0  0  0  0  0  0  0  0  0  0  0
    7.8764   -9.9979   18.9853 H   0  0  0  0  0  0  0  0  0  0  0  0
    9.6781   -8.1487   20.7381 H   0  0  0  0  0  0  0  0  0  0  0  0
   10.2175   -8.6646   19.6718 H   0  0  0  0  0  0  0  0  0  0  0  0
    6.7803   -6.0976   18.7782 H   0  0  0  0  0  0  0  0  0  0  0  0
    7.3246   -7.7279   19.2541 H   0  0  0  0  0  0  0  0  0  0  0  0
    6.0177   -7.7070   20.4486 H   0  0  0  0  0  0  0  0  0  0  0  0
    6.3988   -6.4579   22.0947 H   0  0  0  0  0  0  0  0  0  0  0  0
    3.9222   -8.0402   22.4996 H   0  0  0  0  0  0  0  0  0  0  0  0
    3.3027  -12.5748   22.1933 H   0  0  0  0  0  0  0  0  0  0  0  0
    3.5256  -12.4110   23.9027 H   0  0  0  0  0  0  0  0  0  0  0  0
    1.5765  -11.5255   25.0222 H   0  0  0  0  0  0  0  0  0  0  0  0
    2.2114  -13.2148   25.4310 H   0  0  0  0  0  0  0  0  0  0  0  0
   -0.3022   -9.9627   28.6261 H   0  0  0  0  0  0  0  0  0  0  0  0
   -0.6075  -12.5591   29.4286 H   0  0  0  0  0  0  0  0  0  0  0  0
    1.7340  -13.7233   28.9365 H   0  0  0  0  0  0  0  0  0  0  0  0
    1.9001  -14.3374   27.3026 H   0  0  0  0  0  0  0  0  0  0  0  0
    0.4827  -14.8147   28.3100 H   0  0  0  0  0  0  0  0  0  0  0  0
   10.6485   -3.6467   15.2992 H   0  0  0  0  0  0  0  0  0  0  0  0
   12.7221   -1.8838   15.2602 H   0  0  0  0  0  0  0  0  0  0  0  0
   13.8662   -2.2654   17.5113 H   0  0  0  0  0  0  0  0  0  0  0  0
  1  2  1  0
  2  3  1  0
  3  4  1  0
  4  5  1  0
  5  6  1  0
  6  7  1  0
  7  8  2  0
  7  9  1  0
  9 10  1  0
 10 11  1  0
 11 12  1  0
 12 13  2  0
 13 14  1  0
 14 15  2  0
 15 16  1  0
 16 17  1  0
  3 18  1  0
 18 19  2  0
 18 20  1  0
 20 21  1  0
 21 22  2  0
 22 23  1  0
 23 24  1  0
 16 12  1  0
 24 20  2  0
  1 25  1  0
  1 26  1  0
  1 27  1  0
  2 28  1  0
  2 29  1  0
  4 30  1  0
  4 31  1  0
  5 32  1  0
  5 33  1  0
  6 34  1  0
  9 35  1  0
  9 36  1  0
 11 37  1  0
 11 38  1  0
 14 39  1  0
 15 40  1  0
 17 41  1  0
 17 42  1  0
 17 43  1  0
 21 44  1  0
 22 45  1  0
 23 46  1  0
M  END
>  <Energy>  (814) 
1491.3893186646796

>  <compound_id>  (814) 
10601

>  <target_id>  (814) 
1

>  <reference_id>  (814) 
116

>  <inspiration_ids>  (814) 
[116, 81]

>  <energy_score>  (814) 
1366.2892968423794

>  <distance_score>  (814) 
2.560910031125973

>  <path>  (814) 
/opt/xchem-fragalysis-2/maxwin/BulkDock/SCRATCH/511021/C10601-P116/C10601-P116.minimised.mol

>  <scratch_subdir>  (814) 
/opt/xchem-fragalysis-2/maxwin/BulkDock/SCRATCH/511021/C10601-P116

>  <fragmenstein_runtime>  (814) 
20.344211101531982

>  <fragmenstein_outcome>  (814) 
too moved

>  <fragmenstein_mode>  (814) 
expansion

>  <fragmenstein_error>  (814) 


$$$$
C10601-P81
     RDKit          3D

 46 47  0  0  0  0  0  0  0  0999 V2000
    6.5204   -6.3199   17.8284 C   0  0  0  0  0  0  0  0  0  0  0  0
    7.5220   -6.3399   19.0107 C   0  0  0  0  0  0  0  0  0  0  0  0
    9.4695   -5.9225   19.5476 N   0  0  0  0  0  0  0  0  0  0  0  0
    8.7650   -7.7976   20.0611 C   0  0  0  0  0  0  0  0  0  0  0  0
    6.7506   -7.3729   21.2058 C   0  0  0  0  0  0  0  0  0  0  0  0
    4.9343   -8.2319   22.2090 N   0  0  0  0  0  0  0  0  0  0  0  0
    4.5265  -10.1920   22.7499 C   0  0  0  0  0  0  0  0  0  0  0  0
    5.4532  -10.8304   22.5732 O   0  0  0  0  0  0  0  0  0  0  0  0
    2.8587  -11.5293   23.2822 C   0  0  0  0  0  0  0  0  0  0  0  0
    1.6503  -12.9814   23.8027 O   0  0  0  0  0  0  0  0  0  0  0  0
   -0.1095  -13.9951   23.6858 C   0  0  0  0  0  0  0  0  0  0  0  0
   -1.6844  -14.9100   24.6709 C   0  0  0  0  0  0  0  0  0  0  0  0
   -2.2691  -14.2890   25.7142 N   0  0  0  0  0  0  0  0  0  0  0  0
   -2.1548  -15.0665   27.1120 C   0  0  0  0  0  0  0  0  0  0  0  0
   -2.4588  -16.3371   26.9328 C   0  0  0  0  0  0  0  0  0  0  0  0
   -2.5664  -16.4099   25.2476 N   0  0  0  0  0  0  0  0  0  0  0  0
   -1.9404  -17.8588   25.6480 C   0  0  0  0  0  0  0  0  0  0  0  0
   10.8683   -5.3875   18.5816 C   0  0  0  0  0  0  0  0  0  0  0  0
   10.9692   -5.1490   17.3488 O   0  0  0  0  0  0  0  0  0  0  0  0
   12.3083   -5.0849   19.4109 C   0  0  0  0  0  0  0  0  0  0  0  0
   13.3966   -4.3846   18.7928 C   0  0  0  0  0  0  0  0  0  0  0  0
   14.2929   -4.1697   19.8039 C   0  0  0  0  0  0  0  0  0  0  0  0
   13.7291   -4.7169   20.9202 N   0  0  0  0  0  0  0  0  0  0  0  0
   12.5810   -5.3834   20.6906 N   0  0  0  0  0  0  0  0  0  0  0  0
    6.8202   -6.2563   16.7863 H   0  0  0  0  0  0  0  0  0  0  0  0
    5.6903   -5.6751   18.0410 H   0  0  0  0  0  0  0  0  0  0  0  0
    5.7857   -7.1105   17.9186 H   0  0  0  0  0  0  0  0  0  0  0  0
    7.0860   -5.4432   19.5702 H   0  0  0  0  0  0  0  0  0  0  0  0
    9.0839   -6.3967   18.9820 H   0  0  0  0  0  0  0  0  0  0  0  0
    9.7478   -8.1156   20.5715 H   0  0  0  0  0  0  0  0  0  0  0  0
    8.9035   -8.6970   19.3050 H   0  0  0  0  0  0  0  0  0  0  0  0
    6.8833   -6.5286   21.8906 H   0  0  0  0  0  0  0  0  0  0  0  0
    6.3930   -7.5824   20.1966 H   0  0  0  0  0  0  0  0  0  0  0  0
    4.1925   -7.7055   22.4480 H   0  0  0  0  0  0  0  0  0  0  0  0
    3.0684  -12.1195   22.3815 H   0  0  0  0  0  0  0  0  0  0  0  0
    3.4242  -12.3448   23.7686 H   0  0  0  0  0  0  0  0  0  0  0  0
    0.4627  -14.5252   24.3267 H   0  0  0  0  0  0  0  0  0  0  0  0
   -0.2611  -14.1649   22.6249 H   0  0  0  0  0  0  0  0  0  0  0  0
   -2.1384  -14.6310   28.0908 H   0  0  0  0  0  0  0  0  0  0  0  0
   -3.1198  -17.0076   27.4524 H   0  0  0  0  0  0  0  0  0  0  0  0
   -2.3724  -18.7003   25.2092 H   0  0  0  0  0  0  0  0  0  0  0  0
   -0.8743  -17.8822   25.8781 H   0  0  0  0  0  0  0  0  0  0  0  0
   -2.2846  -18.2152   26.5827 H   0  0  0  0  0  0  0  0  0  0  0  0
   13.4446   -4.0398   17.7694 H   0  0  0  0  0  0  0  0  0  0  0  0
   15.2375   -3.6473   19.8463 H   0  0  0  0  0  0  0  0  0  0  0  0
   14.0849   -4.6917   21.8702 H   0  0  0  0  0  0  0  0  0  0  0  0
  1  2  1  0
  2  3  1  0
  3  4  1  0
  4  5  1  0
  5  6  1  0
  6  7  1  0
  7  8  2  0
  7  9  1  0
  9 10  1  0
 10 11  1  0
 11 12  1  0
 12 13  2  0
 13 14  1  0
 14 15  2  0
 15 16  1  0
 16 17  1  0
  3 18  1  0
 18 19  2  0
 18 20  1  0
 20 21  1  0
 21 22  2  0
 22 23  1  0
 23 24  1  0
 16 12  1  0
 24 20  2  0
  1 25  1  0
  1 26  1  0
  1 27  1  0
  2 28  1  0
  2 29  1  0
  4 30  1  0
  4 31  1  0
  5 32  1  0
  5 33  1  0
  6 34  1  0
  9 35  1  0
  9 36  1  0
 11 37  1  0
 11 38  1  0
 14 39  1  0
 15 40  1  0
 17 41  1  0
 17 42  1  0
 17 43  1  0
 21 44  1  0
 22 45  1  0
 23 46  1  0
M  END
>  <Energy>  (815) 
2273.8927956533134

>  <compound_id>  (815) 
10601

>  <target_id>  (815) 
1

>  <reference_id>  (815) 
81

>  <inspiration_ids>  (815) 
[116, 81]

>  <energy_score>  (815) 
2148.792773831053

>  <distance_score>  (815) 
5.080547862334596

>  <path>  (815) 
/opt/xchem-fragalysis-2/maxwin/BulkDock/SCRATCH/511021/C10601-P81/C10601-P81.minimised.mol

>  <scratch_subdir>  (815) 
/opt/xchem-fragalysis-2/maxwin/BulkDock/SCRATCH/511021/C10601-P81

>  <fragmenstein_runtime>  (815) 
25.997795343399048

>  <fragmenstein_outcome>  (815) 
too moved

>  <fragmenstein_mode>  (815) 
expansion

>  <fragmenstein_error>  (815) 


$$$$
C12673-P116
     RDKit          3D

 42 43  0  0  0  0  0  0  0  0999 V2000
   10.7904   -6.1365   26.0584 C   0  0  0  0  0  0  0  0  0  0  0  0
   10.7273   -7.4983   25.3593 C   0  0  0  0  0  0  0  0  0  0  0  0
   11.3892   -7.4810   23.8865 C   0  0  0  0  0  0  0  0  0  0  0  0
   12.2829   -6.2064   23.4617 C   0  0  0  0  0  0  0  0  0  0  0  0
   12.4919   -5.9193   22.0079 N   0  0  0  0  0  0  0  0  0  0  0  0
   13.0334   -4.5946   21.2760 C   0  0  0  0  0  0  0  0  0  0  0  0
   13.3090   -3.5363   21.7204 O   0  0  0  0  0  0  0  0  0  0  0  0
   13.1844   -4.9140   19.7465 C   0  0  0  0  0  0  0  0  0  0  0  0
   13.2747   -3.8368   18.6292 C   0  0  0  0  0  0  0  0  0  0  0  0
   12.5351   -3.7747   17.3950 C   0  0  0  0  0  0  0  0  0  0  0  0
   12.8183   -2.7059   16.6428 N   0  0  0  0  0  0  0  0  0  0  0  0
   13.8552   -2.1616   17.2899 N   0  0  0  0  0  0  0  0  0  0  0  0
   14.1419   -2.7737   18.4802 C   0  0  0  0  0  0  0  0  0  0  0  0
    9.3617   -8.0941   25.6958 N   0  0  0  0  0  0  0  0  0  0  0  0
    8.9372   -9.5801   25.9605 C   0  0  0  0  0  0  0  0  0  0  0  0
    9.5581  -10.5719   25.8823 O   0  0  0  0  0  0  0  0  0  0  0  0
    7.4870   -9.7353   26.5134 C   0  0  0  0  0  0  0  0  0  0  0  0
    7.0178  -10.8903   27.1549 C   0  0  0  0  0  0  0  0  0  0  0  0
    5.9252  -10.5254   27.8916 N   0  0  0  0  0  0  0  0  0  0  0  0
    5.4023  -11.2718   29.0064 C   0  0  0  0  0  0  0  0  0  0  0  0
    5.5834   -9.2728   27.5040 C   0  0  0  0  0  0  0  0  0  0  0  0
    6.4874   -8.7681   26.6815 N   0  0  0  0  0  0  0  0  0  0  0  0
   11.8137   -5.7511   26.0977 H   0  0  0  0  0  0  0  0  0  0  0  0
   10.4411   -6.2164   27.0946 H   0  0  0  0  0  0  0  0  0  0  0  0
   10.1508   -5.4026   25.5589 H   0  0  0  0  0  0  0  0  0  0  0  0
   11.4001   -8.1565   25.9272 H   0  0  0  0  0  0  0  0  0  0  0  0
   12.0537   -8.3549   23.8276 H   0  0  0  0  0  0  0  0  0  0  0  0
   10.6510   -7.6907   23.1210 H   0  0  0  0  0  0  0  0  0  0  0  0
   11.8709   -5.2786   23.8668 H   0  0  0  0  0  0  0  0  0  0  0  0
   13.2821   -6.3235   23.8953 H   0  0  0  0  0  0  0  0  0  0  0  0
   12.4362   -6.6768   21.3418 H   0  0  0  0  0  0  0  0  0  0  0  0
   14.0427   -5.5853   19.6375 H   0  0  0  0  0  0  0  0  0  0  0  0
   12.2738   -5.4556   19.5494 H   0  0  0  0  0  0  0  0  0  0  0  0
   11.7816   -4.4679   17.0448 H   0  0  0  0  0  0  0  0  0  0  0  0
   14.3154   -1.3585   16.8744 H   0  0  0  0  0  0  0  0  0  0  0  0
   14.9357   -2.4076   19.1162 H   0  0  0  0  0  0  0  0  0  0  0  0
    8.5464   -7.4863   25.7787 H   0  0  0  0  0  0  0  0  0  0  0  0
    7.4993  -11.8510   27.2846 H   0  0  0  0  0  0  0  0  0  0  0  0
    6.1616  -11.3009   29.7919 H   0  0  0  0  0  0  0  0  0  0  0  0
    5.1820  -12.2757   28.6501 H   0  0  0  0  0  0  0  0  0  0  0  0
    4.4940  -10.7962   29.3819 H   0  0  0  0  0  0  0  0  0  0  0  0
    4.7260   -8.7420   27.8802 H   0  0  0  0  0  0  0  0  0  0  0  0
  1  2  1  0
  2  3  1  0
  3  4  1  0
  4  5  1  0
  5  6  1  0
  6  7  2  0
  6  8  1  0
  8  9  1  0
  9 10  1  0
 10 11  2  0
 11 12  1  0
 12 13  1  0
  2 14  1  0
 14 15  1  0
 15 16  2  0
 15 17  1  0
 17 18  2  0
 18 19  1  0
 19 20  1  0
 19 21  1  0
 21 22  2  0
 13  9  2  0
 22 17  1  0
  1 23  1  0
  1 24  1  0
  1 25  1  0
  2 26  1  0
  3 27  1  0
  3 28  1  0
  4 29  1  0
  4 30  1  0
  5 31  1  0
  8 32  1  0
  8 33  1  0
 10 34  1  0
 12 35  1  0
 13 36  1  0
 14 37  1  0
 18 38  1  0
 20 39  1  0
 20 40  1  0
 20 41  1  0
 21 42  1  0
M  END
>  <Energy>  (816) 
100.27200037433587

>  <compound_id>  (816) 
12673

>  <target_id>  (816) 
1

>  <reference_id>  (816) 
116

>  <inspiration_ids>  (816) 
[116, 81]

>  <energy_score>  (816) 
26.45013523117825

>  <distance_score>  (816) 
6.840684855230949

>  <path>  (816) 
/opt/xchem-fragalysis-2/maxwin/BulkDock/SCRATCH/511021/C12673-P116/C12673-P116.minimised.mol

>  <scratch_subdir>  (816) 
/opt/xchem-fragalysis-2/maxwin/BulkDock/SCRATCH/511021/C12673-P116

>  <fragmenstein_runtime>  (816) 
13.617032289505005

>  <fragmenstein_outcome>  (816) 
too moved

>  <fragmenstein_mode>  (816) 
expansion

>  <fragmenstein_error>  (816) 


$$$$
C12673-P81
     RDKit          3D

 42 43  0  0  0  0  0  0  0  0999 V2000
   10.7998   -9.2838   26.2378 C   0  0  0  0  0  0  0  0  0  0  0  0
    9.5509   -9.1492   27.1079 C   0  0  0  0  0  0  0  0  0  0  0  0
    8.6418   -8.0082   26.6217 C   0  0  0  0  0  0  0  0  0  0  0  0
    7.9966   -8.2725   25.2492 C   0  0  0  0  0  0  0  0  0  0  0  0
    8.5213   -7.2893   24.1642 N   0  0  0  0  0  0  0  0  0  0  0  0
    7.6327   -6.0734   23.0216 C   0  0  0  0  0  0  0  0  0  0  0  0
    6.4994   -5.9698   23.2067 O   0  0  0  0  0  0  0  0  0  0  0  0
    8.2219   -4.9384   21.2718 C   0  0  0  0  0  0  0  0  0  0  0  0
   10.2422   -5.3733   20.5166 C   0  0  0  0  0  0  0  0  0  0  0  0
   11.6327   -5.3671   19.4823 C   0  0  0  0  0  0  0  0  0  0  0  0
   12.9223   -5.4511   19.8248 N   0  0  0  0  0  0  0  0  0  0  0  0
   12.8681   -5.0666   21.0449 N   0  0  0  0  0  0  0  0  0  0  0  0
   11.6107   -4.6634   21.3388 C   0  0  0  0  0  0  0  0  0  0  0  0
    8.7656  -10.3607   27.2130 N   0  0  0  0  0  0  0  0  0  0  0  0
    9.0932  -11.7169   26.9202 C   0  0  0  0  0  0  0  0  0  0  0  0
   10.0750  -12.1963   26.4380 O   0  0  0  0  0  0  0  0  0  0  0  0
    7.9278  -12.5463   27.2698 C   0  0  0  0  0  0  0  0  0  0  0  0
    7.7559  -13.8994   27.0624 C   0  0  0  0  0  0  0  0  0  0  0  0
    6.5096  -14.1870   27.5320 N   0  0  0  0  0  0  0  0  0  0  0  0
    5.8648  -15.4750   27.5057 C   0  0  0  0  0  0  0  0  0  0  0  0
    5.9929  -13.0375   28.0408 C   0  0  0  0  0  0  0  0  0  0  0  0
    6.7888  -12.0107   27.8640 N   0  0  0  0  0  0  0  0  0  0  0  0
   11.3173   -8.3226   26.1500 H   0  0  0  0  0  0  0  0  0  0  0  0
   11.5051   -9.9949   26.6810 H   0  0  0  0  0  0  0  0  0  0  0  0
   10.5651   -9.6372   25.2286 H   0  0  0  0  0  0  0  0  0  0  0  0
    9.8734   -8.9139   28.1293 H   0  0  0  0  0  0  0  0  0  0  0  0
    9.2132   -7.0720   26.6141 H   0  0  0  0  0  0  0  0  0  0  0  0
    7.8342   -7.8743   27.3535 H   0  0  0  0  0  0  0  0  0  0  0  0
    6.9010   -8.3625   25.2694 H   0  0  0  0  0  0  0  0  0  0  0  0
    8.3200   -9.2491   24.8709 H   0  0  0  0  0  0  0  0  0  0  0  0
    9.5066   -7.2443   23.9792 H   0  0  0  0  0  0  0  0  0  0  0  0
    8.0022   -3.8635   21.4417 H   0  0  0  0  0  0  0  0  0  0  0  0
    7.5269   -4.9670   20.3723 H   0  0  0  0  0  0  0  0  0  0  0  0
   11.5536   -5.0245   18.4399 H   0  0  0  0  0  0  0  0  0  0  0  0
   13.7294   -4.8788   21.5487 H   0  0  0  0  0  0  0  0  0  0  0  0
   11.6059   -4.0351   22.2258 H   0  0  0  0  0  0  0  0  0  0  0  0
    7.8696  -10.3341   27.7012 H   0  0  0  0  0  0  0  0  0  0  0  0
    8.4057  -14.6411   26.6148 H   0  0  0  0  0  0  0  0  0  0  0  0
    4.8268  -15.3417   27.1925 H   0  0  0  0  0  0  0  0  0  0  0  0
    6.3801  -16.1240   26.7931 H   0  0  0  0  0  0  0  0  0  0  0  0
    5.9176  -15.9038   28.5089 H   0  0  0  0  0  0  0  0  0  0  0  0
    5.0381  -12.9907   28.5201 H   0  0  0  0  0  0  0  0  0  0  0  0
  1  2  1  0
  2  3  1  0
  3  4  1  0
  4  5  1  0
  5  6  1  0
  6  7  2  0
  6  8  1  0
  8  9  1  0
  9 10  1  0
 10 11  2  0
 11 12  1  0
 12 13  1  0
  2 14  1  0
 14 15  1  0
 15 16  2  0
 15 17  1  0
 17 18  2  0
 18 19  1  0
 19 20  1  0
 19 21  1  0
 21 22  2  0
 13  9  2  0
 22 17  1  0
  1 23  1  0
  1 24  1  0
  1 25  1  0
  2 26  1  0
  3 27  1  0
  3 28  1  0
  4 29  1  0
  4 30  1  0
  5 31  1  0
  8 32  1  0
  8 33  1  0
 10 34  1  0
 12 35  1  0
 13 36  1  0
 14 37  1  0
 18 38  1  0
 20 39  1  0
 20 40  1  0
 20 41  1  0
 21 42  1  0
M  END
>  <Energy>  (817) 
547.7576493971228

>  <compound_id>  (817) 
12673

>  <target_id>  (817) 
1

>  <reference_id>  (817) 
81

>  <inspiration_ids>  (817) 
[116, 81]

>  <energy_score>  (817) 
491.9615863275897

>  <distance_score>  (817) 
7.7569436828961225

>  <path>  (817) 
/opt/xchem-fragalysis-2/maxwin/BulkDock/SCRATCH/511021/C12673-P81/C12673-P81.minimised.mol

>  <scratch_subdir>  (817) 
/opt/xchem-fragalysis-2/maxwin/BulkDock/SCRATCH/511021/C12673-P81

>  <fragmenstein_runtime>  (817) 
22.051370859146118

>  <fragmenstein_outcome>  (817) 
too moved

>  <fragmenstein_mode>  (817) 
expansion

>  <fragmenstein_error>  (817) 


$$$$
C12674-P116
     RDKit          3D

 42 43  0  0  0  0  0  0  0  0999 V2000
   -2.9676   -5.2662   24.5831 C   0  0  0  0  0  0  0  0  0  0  0  0
   -1.6849   -5.9509   24.9900 C   0  0  0  0  0  0  0  0  0  0  0  0
   -1.8461   -6.8155   26.0518 N   0  0  0  0  0  0  0  0  0  0  0  0
   -0.7961   -7.6304   26.0220 C   0  0  0  0  0  0  0  0  0  0  0  0
    0.2009   -7.0291   25.3877 N   0  0  0  0  0  0  0  0  0  0  0  0
   -0.2968   -6.0190   24.6126 C   0  0  0  0  0  0  0  0  0  0  0  0
    0.3611   -5.8398   23.1640 C   0  0  0  0  0  0  0  0  0  0  0  0
    0.7647   -4.8542   22.6141 O   0  0  0  0  0  0  0  0  0  0  0  0
    0.2215   -7.2075   22.6865 N   0  0  0  0  0  0  0  0  0  0  0  0
    0.4543   -7.8841   21.1828 C   0  0  0  0  0  0  0  0  0  0  0  0
   -0.7420   -9.0297   20.4566 C   0  0  0  0  0  0  0  0  0  0  0  0
    1.1542   -7.3699   19.9242 C   0  0  0  0  0  0  0  0  0  0  0  0
    2.2278   -5.9838   19.8690 C   0  0  0  0  0  0  0  0  0  0  0  0
    3.6339   -4.9092   19.6449 N   0  0  0  0  0  0  0  0  0  0  0  0
    4.5580   -4.7211   18.5254 C   0  0  0  0  0  0  0  0  0  0  0  0
    4.6842   -5.3266   17.4775 O   0  0  0  0  0  0  0  0  0  0  0  0
    5.4318   -3.0619   19.1573 C   0  0  0  0  0  0  0  0  0  0  0  0
    5.9217   -1.4087   17.9777 C   0  0  0  0  0  0  0  0  0  0  0  0
    6.9170   -0.1635   18.6977 C   0  0  0  0  0  0  0  0  0  0  0  0
    7.4999    0.7006   17.8822 N   0  0  0  0  0  0  0  0  0  0  0  0
    7.0810    0.3019   16.6940 N   0  0  0  0  0  0  0  0  0  0  0  0
    6.1647   -0.7411   16.6740 C   0  0  0  0  0  0  0  0  0  0  0  0
   -3.4537   -5.7078   23.7178 H   0  0  0  0  0  0  0  0  0  0  0  0
   -2.9118   -4.2027   24.3735 H   0  0  0  0  0  0  0  0  0  0  0  0
   -3.6839   -5.2882   25.4134 H   0  0  0  0  0  0  0  0  0  0  0  0
   -2.6969   -6.9735   26.5711 H   0  0  0  0  0  0  0  0  0  0  0  0
   -0.6596   -8.5669   26.5374 H   0  0  0  0  0  0  0  0  0  0  0  0
   -0.0555   -7.7524   23.4003 H   0  0  0  0  0  0  0  0  0  0  0  0
   -0.5042   -7.5013   21.2638 H   0  0  0  0  0  0  0  0  0  0  0  0
   -0.5100  -10.0664   20.7212 H   0  0  0  0  0  0  0  0  0  0  0  0
   -0.8953   -8.8844   19.3800 H   0  0  0  0  0  0  0  0  0  0  0  0
   -1.7636   -8.8476   20.8508 H   0  0  0  0  0  0  0  0  0  0  0  0
    0.1901   -7.3746   19.4309 H   0  0  0  0  0  0  0  0  0  0  0  0
    1.4673   -8.1367   19.1479 H   0  0  0  0  0  0  0  0  0  0  0  0
    1.9242   -5.5781   20.8209 H   0  0  0  0  0  0  0  0  0  0  0  0
    1.5509   -5.1484   19.8940 H   0  0  0  0  0  0  0  0  0  0  0  0
    3.8851   -4.2758   20.3879 H   0  0  0  0  0  0  0  0  0  0  0  0
    6.1077   -3.9738   19.4168 H   0  0  0  0  0  0  0  0  0  0  0  0
    5.2818   -2.7734   20.2011 H   0  0  0  0  0  0  0  0  0  0  0  0
    7.1285   -0.1380   19.7613 H   0  0  0  0  0  0  0  0  0  0  0  0
    7.5221    0.7182   15.8799 H   0  0  0  0  0  0  0  0  0  0  0  0
    5.9343   -1.0502   15.6492 H   0  0  0  0  0  0  0  0  0  0  0  0
  1  2  1  0
  2  3  1  0
  3  4  1  0
  4  5  2  0
  5  6  1  0
  6  7  1  0
  7  8  2  0
  7  9  1  0
  9 10  1  0
 10 11  1  0
 10 12  1  0
 12 13  1  0
 13 14  1  0
 14 15  1  0
 15 16  2  0
 15 17  1  0
 17 18  1  0
 18 19  1  0
 19 20  2  0
 20 21  1  0
 21 22  1  0
  6  2  2  0
 22 18  2  0
  1 23  1  0
  1 24  1  0
  1 25  1  0
  3 26  1  0
  4 27  1  0
  9 28  1  0
 10 29  1  0
 11 30  1  0
 11 31  1  0
 11 32  1  0
 12 33  1  0
 12 34  1  0
 13 35  1  0
 13 36  1  0
 14 37  1  0
 17 38  1  0
 17 39  1  0
 19 40  1  0
 21 41  1  0
 22 42  1  0
M  END
>  <Energy>  (818) 
587.68212965940154

>  <compound_id>  (818) 
12674

>  <target_id>  (818) 
1

>  <reference_id>  (818) 
116

>  <inspiration_ids>  (818) 
[116, 81]

>  <energy_score>  (818) 
534.0441264227203

>  <distance_score>  (818) 
7.148876145949344

>  <path>  (818) 
/opt/xchem-fragalysis-2/maxwin/BulkDock/SCRATCH/511021/C12674-P116/C12674-P116.minimised.mol

>  <scratch_subdir>  (818) 
/opt/xchem-fragalysis-2/maxwin/BulkDock/SCRATCH/511021/C12674-P116

>  <fragmenstein_runtime>  (818) 
26.279919147491455

>  <fragmenstein_outcome>  (818) 
too moved

>  <fragmenstein_mode>  (818) 
expansion

>  <fragmenstein_error>  (818) 


$$$$
C12674-P81
     RDKit          3D

 42 43  0  0  0  0  0  0  0  0999 V2000
    4.1071  -14.1653   24.8929 C   0  0  0  0  0  0  0  0  0  0  0  0
    2.8206  -13.3003   24.6715 C   0  0  0  0  0  0  0  0  0  0  0  0
    1.7409  -13.5100   25.9829 N   0  0  0  0  0  0  0  0  0  0  0  0
    1.0686  -12.3861   26.1164 C   0  0  0  0  0  0  0  0  0  0  0  0
    1.4977  -11.7159   25.0770 N   0  0  0  0  0  0  0  0  0  0  0  0
    2.0151  -12.3929   24.0044 C   0  0  0  0  0  0  0  0  0  0  0  0
    2.2364  -11.7087   22.7609 C   0  0  0  0  0  0  0  0  0  0  0  0
    3.3850  -11.8410   22.4334 O   0  0  0  0  0  0  0  0  0  0  0  0
    1.1151  -10.4853   21.5940 N   0  0  0  0  0  0  0  0  0  0  0  0
    1.6105   -9.2860   19.9940 C   0  0  0  0  0  0  0  0  0  0  0  0
    2.2987   -9.6959   18.3059 C   0  0  0  0  0  0  0  0  0  0  0  0
    2.4334   -7.8870   18.7205 C   0  0  0  0  0  0  0  0  0  0  0  0
    4.4168   -7.3723   18.1283 C   0  0  0  0  0  0  0  0  0  0  0  0
    5.5054   -6.3775   17.5859 N   0  0  0  0  0  0  0  0  0  0  0  0
    6.3900   -6.4167   16.2051 C   0  0  0  0  0  0  0  0  0  0  0  0
    6.3801   -7.2080   15.2942 O   0  0  0  0  0  0  0  0  0  0  0  0
    7.4532   -5.4502   15.9936 C   0  0  0  0  0  0  0  0  0  0  0  0
    7.8146   -3.5514   15.4887 C   0  0  0  0  0  0  0  0  0  0  0  0
    7.0169   -2.4709   15.0238 C   0  0  0  0  0  0  0  0  0  0  0  0
    7.6997   -1.3254   15.0343 N   0  0  0  0  0  0  0  0  0  0  0  0
    8.9466   -1.7145   14.8420 N   0  0  0  0  0  0  0  0  0  0  0  0
    9.0742   -3.0588   14.9716 C   0  0  0  0  0  0  0  0  0  0  0  0
    4.0546  -14.8179   25.7599 H   0  0  0  0  0  0  0  0  0  0  0  0
    4.3363  -14.8204   24.0497 H   0  0  0  0  0  0  0  0  0  0  0  0
    4.9669  -13.6032   25.2765 H   0  0  0  0  0  0  0  0  0  0  0  0
    2.2317  -13.8627   26.7762 H   0  0  0  0  0  0  0  0  0  0  0  0
    0.6885  -11.8359   26.9397 H   0  0  0  0  0  0  0  0  0  0  0  0
    0.2023  -10.3865   22.0133 H   0  0  0  0  0  0  0  0  0  0  0  0
    0.6894   -8.6463   20.0609 H   0  0  0  0  0  0  0  0  0  0  0  0
    1.4631   -9.4369   17.6819 H   0  0  0  0  0  0  0  0  0  0  0  0
    2.6592  -10.6469   17.9390 H   0  0  0  0  0  0  0  0  0  0  0  0
    3.2376   -9.3114   17.9260 H   0  0  0  0  0  0  0  0  0  0  0  0
    1.8010   -7.9262   17.8306 H   0  0  0  0  0  0  0  0  0  0  0  0
    2.1744   -6.9633   19.3196 H   0  0  0  0  0  0  0  0  0  0  0  0
    4.9237   -8.2766   18.4024 H   0  0  0  0  0  0  0  0  0  0  0  0
    4.1630   -7.0087   17.1283 H   0  0  0  0  0  0  0  0  0  0  0  0
    5.8196   -5.6329   18.1656 H   0  0  0  0  0  0  0  0  0  0  0  0
    7.9752   -6.1211   15.2905 H   0  0  0  0  0  0  0  0  0  0  0  0
    7.4070   -5.6697   17.0472 H   0  0  0  0  0  0  0  0  0  0  0  0
    5.9649   -2.4559   14.7976 H   0  0  0  0  0  0  0  0  0  0  0  0
    9.6159   -1.0595   14.4523 H   0  0  0  0  0  0  0  0  0  0  0  0
   10.0458   -3.5304   14.8732 H   0  0  0  0  0  0  0  0  0  0  0  0
  1  2  1  0
  2  3  1  0
  3  4  1  0
  4  5  2  0
  5  6  1  0
  6  7  1  0
  7  8  2  0
  7  9  1  0
  9 10  1  0
 10 11  1  0
 10 12  1  0
 12 13  1  0
 13 14  1  0
 14 15  1  0
 15 16  2  0
 15 17  1  0
 17 18  1  0
 18 19  1  0
 19 20  2  0
 20 21  1  0
 21 22  1  0
  6  2  2  0
 22 18  2  0
  1 23  1  0
  1 24  1  0
  1 25  1  0
  3 26  1  0
  4 27  1  0
  9 28  1  0
 10 29  1  0
 11 30  1  0
 11 31  1  0
 11 32  1  0
 12 33  1  0
 12 34  1  0
 13 35  1  0
 13 36  1  0
 14 37  1  0
 17 38  1  0
 17 39  1  0
 19 40  1  0
 21 41  1  0
 22 42  1  0
M  END
>  <Energy>  (819) 
1012.2112146168438

>  <compound_id>  (819) 
12674

>  <target_id>  (819) 
1

>  <reference_id>  (819) 
81

>  <inspiration_ids>  (819) 
[116, 81]

>  <energy_score>  (819) 
958.5732113801668

>  <distance_score>  (819) 
4.59299170545988

>  <path>  (819) 
/opt/xchem-fragalysis-2/maxwin/BulkDock/SCRATCH/511021/C12674-P81/C12674-P81.minimised.mol

>  <scratch_subdir>  (819) 
/opt/xchem-fragalysis-2/maxwin/BulkDock/SCRATCH/511021/C12674-P81

>  <fragmenstein_runtime>  (819) 
20.4728786945343

>  <fragmenstein_outcome>  (819) 
too moved

>  <fragmenstein_mode>  (819) 
expansion

>  <fragmenstein_error>  (819) 


$$$$
C10604-P116
     RDKit          3D

 30 32  0  0  0  0  0  0  0  0999 V2000
    6.4682   -6.5867   22.2320 O   0  0  0  0  0  0  0  0  0  0  0  0
    6.7908   -5.4173   22.5518 C   0  0  0  0  0  0  0  0  0  0  0  0
    7.7845   -4.6201   21.1609 O   0  0  0  0  0  0  0  0  0  0  0  0
    9.6901   -5.1852   20.7228 C   0  0  0  0  0  0  0  0  0  0  0  0
   11.2447   -4.6961   21.4123 C   0  0  0  0  0  0  0  0  0  0  0  0
   12.4998   -4.8569   20.7201 C   0  0  0  0  0  0  0  0  0  0  0  0
   13.4521   -4.3251   21.5465 C   0  0  0  0  0  0  0  0  0  0  0  0
   12.7885   -3.9543   22.6713 N   0  0  0  0  0  0  0  0  0  0  0  0
   11.4679   -4.1958   22.6387 N   0  0  0  0  0  0  0  0  0  0  0  0
    6.2839   -5.1092   24.1931 C   0  0  0  0  0  0  0  0  0  0  0  0
    5.6734   -4.0648   24.9167 C   0  0  0  0  0  0  0  0  0  0  0  0
    5.3599   -4.0975   26.2495 N   0  0  0  0  0  0  0  0  0  0  0  0
    5.6365   -5.2660   26.8673 C   0  0  0  0  0  0  0  0  0  0  0  0
    6.1375   -6.3719   26.1983 C   0  0  0  0  0  0  0  0  0  0  0  0
    6.2315   -7.6329   26.8488 N   0  0  0  0  0  0  0  0  0  0  0  0
    5.9810   -7.9501   28.1671 C   0  0  0  0  0  0  0  0  0  0  0  0
    6.1001   -9.3167   28.2660 C   0  0  0  0  0  0  0  0  0  0  0  0
    6.4973   -9.8464   27.0773 N   0  0  0  0  0  0  0  0  0  0  0  0
    6.6045   -8.8177   26.2610 C   0  0  0  0  0  0  0  0  0  0  0  0
    6.4633   -6.3017   24.8861 N   0  0  0  0  0  0  0  0  0  0  0  0
   10.0454   -6.1974   21.0670 H   0  0  0  0  0  0  0  0  0  0  0  0
    9.7284   -5.5305   19.6909 H   0  0  0  0  0  0  0  0  0  0  0  0
   12.6599   -5.2397   19.7238 H   0  0  0  0  0  0  0  0  0  0  0  0
   14.5189   -4.1958   21.4380 H   0  0  0  0  0  0  0  0  0  0  0  0
   13.1750   -3.5435   23.5139 H   0  0  0  0  0  0  0  0  0  0  0  0
    5.4929   -3.0862   24.4835 H   0  0  0  0  0  0  0  0  0  0  0  0
    5.3777   -5.2769   27.9161 H   0  0  0  0  0  0  0  0  0  0  0  0
    5.7664   -7.1998   28.9042 H   0  0  0  0  0  0  0  0  0  0  0  0
    5.9619   -9.9464   29.1356 H   0  0  0  0  0  0  0  0  0  0  0  0
    6.9109   -8.8670   25.2235 H   0  0  0  0  0  0  0  0  0  0  0  0
  1  2  2  0
  2  3  1  0
  3  4  1  0
  4  5  1  0
  5  6  1  0
  6  7  2  0
  7  8  1  0
  8  9  1  0
  2 10  1  0
 10 11  2  0
 11 12  1  0
 12 13  2  0
 13 14  1  0
 14 15  1  0
 15 16  1  0
 16 17  2  0
 17 18  1  0
 18 19  2  0
 14 20  2  0
  9  5  2  0
 20 10  1  0
 19 15  1  0
  4 21  1  0
  4 22  1  0
  6 23  1  0
  7 24  1  0
  8 25  1  0
 11 26  1  0
 13 27  1  0
 16 28  1  0
 17 29  1  0
 19 30  1  0
M  END
>  <Energy>  (820) 
435.95974503943273

>  <compound_id>  (820) 
10604

>  <target_id>  (820) 
1

>  <reference_id>  (820) 
116

>  <inspiration_ids>  (820) 
[116, 81]

>  <energy_score>  (820) 
260.70971270649136

>  <distance_score>  (820) 
7.862994912904997

>  <path>  (820) 
/opt/xchem-fragalysis-2/maxwin/BulkDock/SCRATCH/511021/C10604-P116/C10604-P116.minimised.mol

>  <scratch_subdir>  (820) 
/opt/xchem-fragalysis-2/maxwin/BulkDock/SCRATCH/511021/C10604-P116

>  <fragmenstein_runtime>  (820) 
7.654028654098511

>  <fragmenstein_outcome>  (820) 
too moved

>  <fragmenstein_mode>  (820) 
expansion

>  <fragmenstein_error>  (820) 


$$$$
C10604-P81
     RDKit          3D

 30 32  0  0  0  0  0  0  0  0999 V2000
    6.6375   -7.6522   20.1240 O   0  0  0  0  0  0  0  0  0  0  0  0
    6.5334   -7.0905   19.0693 C   0  0  0  0  0  0  0  0  0  0  0  0
    7.7173   -6.2456   18.8575 O   0  0  0  0  0  0  0  0  0  0  0  0
    9.7159   -6.1502   19.4169 C   0  0  0  0  0  0  0  0  0  0  0  0
   11.5287   -5.4509   19.7232 C   0  0  0  0  0  0  0  0  0  0  0  0
   12.5121   -4.7520   18.7774 C   0  0  0  0  0  0  0  0  0  0  0  0
   13.6237   -4.4643   19.5182 C   0  0  0  0  0  0  0  0  0  0  0  0
   13.3610   -4.9694   20.7507 N   0  0  0  0  0  0  0  0  0  0  0  0
   12.2530   -5.7295   20.8288 N   0  0  0  0  0  0  0  0  0  0  0  0
    4.8490   -7.5970   18.2281 C   0  0  0  0  0  0  0  0  0  0  0  0
    3.4548   -7.7918   17.9201 C   0  0  0  0  0  0  0  0  0  0  0  0
    2.5130   -8.6937   16.7941 N   0  0  0  0  0  0  0  0  0  0  0  0
    1.5572   -9.2638   17.3060 C   0  0  0  0  0  0  0  0  0  0  0  0
    2.1078   -9.2118   18.4967 C   0  0  0  0  0  0  0  0  0  0  0  0
    0.8468   -8.3862   19.4386 N   0  0  0  0  0  0  0  0  0  0  0  0
   -0.4705   -8.0155   18.9968 C   0  0  0  0  0  0  0  0  0  0  0  0
   -1.2211   -7.6496   20.0917 C   0  0  0  0  0  0  0  0  0  0  0  0
   -0.5731   -7.9368   21.2384 N   0  0  0  0  0  0  0  0  0  0  0  0
    0.5307   -8.5098   20.8332 C   0  0  0  0  0  0  0  0  0  0  0  0
    3.9183   -8.9057   18.5310 N   0  0  0  0  0  0  0  0  0  0  0  0
    9.5427   -5.2458   20.0095 H   0  0  0  0  0  0  0  0  0  0  0  0
    9.7468   -7.2181   19.9221 H   0  0  0  0  0  0  0  0  0  0  0  0
   12.3138   -4.4518   17.7555 H   0  0  0  0  0  0  0  0  0  0  0  0
   14.5315   -3.9208   19.3028 H   0  0  0  0  0  0  0  0  0  0  0  0
   13.9380   -4.8940   21.5815 H   0  0  0  0  0  0  0  0  0  0  0  0
    2.5708   -7.4337   18.6084 H   0  0  0  0  0  0  0  0  0  0  0  0
    0.6112   -9.4131   16.8488 H   0  0  0  0  0  0  0  0  0  0  0  0
   -0.7595   -8.0874   17.9606 H   0  0  0  0  0  0  0  0  0  0  0  0
   -2.2318   -7.2629   20.0978 H   0  0  0  0  0  0  0  0  0  0  0  0
    1.1745   -9.0710   21.4599 H   0  0  0  0  0  0  0  0  0  0  0  0
  1  2  2  0
  2  3  1  0
  3  4  1  0
  4  5  1  0
  5  6  1  0
  6  7  2  0
  7  8  1  0
  8  9  1  0
  2 10  1  0
 10 11  2  0
 11 12  1  0
 12 13  2  0
 13 14  1  0
 14 15  1  0
 15 16  1  0
 16 17  2  0
 17 18  1  0
 18 19  2  0
 14 20  2  0
  9  5  2  0
 20 10  1  0
 19 15  1  0
  4 21  1  0
  4 22  1  0
  6 23  1  0
  7 24  1  0
  8 25  1  0
 11 26  1  0
 13 27  1  0
 16 28  1  0
 17 29  1  0
 19 30  1  0
M  END
>  <Energy>  (821) 
1002.331269830718

>  <compound_id>  (821) 
10604

>  <target_id>  (821) 
1

>  <reference_id>  (821) 
81

>  <inspiration_ids>  (821) 
[116, 81]

>  <energy_score>  (821) 
827.0812374977808

>  <distance_score>  (821) 
8.282376291874215

>  <path>  (821) 
/opt/xchem-fragalysis-2/maxwin/BulkDock/SCRATCH/511021/C10604-P81/C10604-P81.minimised.mol

>  <scratch_subdir>  (821) 
/opt/xchem-fragalysis-2/maxwin/BulkDock/SCRATCH/511021/C10604-P81

>  <fragmenstein_runtime>  (821) 
12.374456405639648

>  <fragmenstein_outcome>  (821) 
too moved

>  <fragmenstein_mode>  (821) 
expansion

>  <fragmenstein_error>  (821) 


$$$$
C12675-P116
     RDKit          3D

 43 44  0  0  0  0  0  0  0  0999 V2000
    6.3427   -5.8957   25.2802 C   0  0  0  0  0  0  0  0  0  0  0  0
    6.4692   -7.2183   24.5560 N   0  0  0  0  0  0  0  0  0  0  0  0
    6.4391   -6.2152   23.2118 C   0  0  0  0  0  0  0  0  0  0  0  0
    6.6000   -6.7900   21.3063 C   0  0  0  0  0  0  0  0  0  0  0  0
    5.5257   -7.4677   21.9698 O   0  0  0  0  0  0  0  0  0  0  0  0
    7.3069   -6.2888   19.3029 C   0  0  0  0  0  0  0  0  0  0  0  0
    9.3926   -5.8151   19.6113 N   0  0  0  0  0  0  0  0  0  0  0  0
    8.7955   -4.6343   20.2345 C   0  0  0  0  0  0  0  0  0  0  0  0
   10.7665   -5.2926   18.4832 C   0  0  0  0  0  0  0  0  0  0  0  0
   10.7728   -5.0108   17.2920 O   0  0  0  0  0  0  0  0  0  0  0  0
   12.2364   -5.0476   19.2330 C   0  0  0  0  0  0  0  0  0  0  0  0
   12.6656   -5.2304   20.5593 C   0  0  0  0  0  0  0  0  0  0  0  0
   13.9197   -4.8022   20.7465 N   0  0  0  0  0  0  0  0  0  0  0  0
   14.2964   -4.3780   19.5260 N   0  0  0  0  0  0  0  0  0  0  0  0
   13.3137   -4.4529   18.5938 C   0  0  0  0  0  0  0  0  0  0  0  0
    7.5403   -7.9936   25.1303 C   0  0  0  0  0  0  0  0  0  0  0  0
    8.7103   -8.0469   24.8421 O   0  0  0  0  0  0  0  0  0  0  0  0
    6.9813   -8.7565   26.3618 C   0  0  0  0  0  0  0  0  0  0  0  0
    6.9901  -10.2469   26.3352 C   0  0  0  0  0  0  0  0  0  0  0  0
    7.1213  -11.1861   25.3366 C   0  0  0  0  0  0  0  0  0  0  0  0
    6.9364  -12.4572   25.8166 N   0  0  0  0  0  0  0  0  0  0  0  0
    6.7189  -12.3147   27.1013 C   0  0  0  0  0  0  0  0  0  0  0  0
    6.7352  -10.9990   27.4640 N   0  0  0  0  0  0  0  0  0  0  0  0
    5.4890   -5.2472   25.0447 H   0  0  0  0  0  0  0  0  0  0  0  0
    7.2998   -5.3860   25.4138 H   0  0  0  0  0  0  0  0  0  0  0  0
    6.1119   -6.1820   26.3177 H   0  0  0  0  0  0  0  0  0  0  0  0
    6.6157   -5.1348   23.3146 H   0  0  0  0  0  0  0  0  0  0  0  0
    5.3619   -6.1742   23.3851 H   0  0  0  0  0  0  0  0  0  0  0  0
    6.7537   -5.7526   21.4786 H   0  0  0  0  0  0  0  0  0  0  0  0
    5.6086   -7.8306   22.8874 H   0  0  0  0  0  0  0  0  0  0  0  0
    6.6999   -5.3712   19.0801 H   0  0  0  0  0  0  0  0  0  0  0  0
    6.9837   -7.0258   18.6263 H   0  0  0  0  0  0  0  0  0  0  0  0
    9.7136   -4.9913   20.8599 H   0  0  0  0  0  0  0  0  0  0  0  0
    7.7442   -4.4773   20.5627 H   0  0  0  0  0  0  0  0  0  0  0  0
    8.9298   -3.6268   20.2066 H   0  0  0  0  0  0  0  0  0  0  0  0
   12.1122   -5.6355   21.3944 H   0  0  0  0  0  0  0  0  0  0  0  0
   15.2464   -4.0452   19.4077 H   0  0  0  0  0  0  0  0  0  0  0  0
   13.4484   -4.1230   17.5747 H   0  0  0  0  0  0  0  0  0  0  0  0
    7.5703   -8.4077   27.2206 H   0  0  0  0  0  0  0  0  0  0  0  0
    5.9503   -8.4373   26.5596 H   0  0  0  0  0  0  0  0  0  0  0  0
    7.3045  -11.0118   24.2872 H   0  0  0  0  0  0  0  0  0  0  0  0
    6.5510  -13.1133   27.8100 H   0  0  0  0  0  0  0  0  0  0  0  0
    6.5863  -10.6503   28.4004 H   0  0  0  0  0  0  0  0  0  0  0  0
  1  2  1  0
  2  3  1  0
  3  4  1  0
  4  5  1  0
  4  6  1  0
  6  7  1  0
  7  8  1  0
  7  9  1  0
  9 10  2  0
  9 11  1  0
 11 12  1  0
 12 13  2  0
 13 14  1  0
 14 15  1  0
  2 16  1  0
 16 17  2  0
 16 18  1  0
 18 19  1  0
 19 20  2  0
 20 21  1  0
 21 22  2  0
 22 23  1  0
 15 11  2  0
 23 19  1  0
  1 24  1  0
  1 25  1  0
  1 26  1  0
  3 27  1  0
  3 28  1  0
  4 29  1  0
  5 30  1  0
  6 31  1  0
  6 32  1  0
  8 33  1  0
  8 34  1  0
  8 35  1  0
 12 36  1  0
 14 37  1  0
 15 38  1  0
 18 39  1  0
 18 40  1  0
 20 41  1  0
 22 42  1  0
 23 43  1  0
M  END
>  <Energy>  (822) 
772.43316590505049

>  <compound_id>  (822) 
12675

>  <target_id>  (822) 
1

>  <reference_id>  (822) 
116

>  <inspiration_ids>  (822) 
[116, 81]

>  <energy_score>  (822) 
680.8288085860551

>  <distance_score>  (822) 
7.439882211995384

>  <path>  (822) 
/opt/xchem-fragalysis-2/maxwin/BulkDock/SCRATCH/511021/C12675-P116/C12675-P116.minimised.mol

>  <scratch_subdir>  (822) 
/opt/xchem-fragalysis-2/maxwin/BulkDock/SCRATCH/511021/C12675-P116

>  <fragmenstein_runtime>  (822) 
15.666885375976562

>  <fragmenstein_outcome>  (822) 
too moved

>  <fragmenstein_mode>  (822) 
expansion

>  <fragmenstein_error>  (822) 


$$$$
C12675-P81
     RDKit          3D

 43 44  0  0  0  0  0  0  0  0999 V2000
   10.0945   -7.8088   25.1369 C   0  0  0  0  0  0  0  0  0  0  0  0
    8.6092   -7.7982   25.5114 N   0  0  0  0  0  0  0  0  0  0  0  0
    8.5193   -6.8761   24.2031 C   0  0  0  0  0  0  0  0  0  0  0  0
    7.5546   -5.6065   22.9466 C   0  0  0  0  0  0  0  0  0  0  0  0
    6.5854   -6.6118   22.7370 O   0  0  0  0  0  0  0  0  0  0  0  0
    8.0822   -4.7130   21.1596 C   0  0  0  0  0  0  0  0  0  0  0  0
    8.4461   -3.8867   19.6346 N   0  0  0  0  0  0  0  0  0  0  0  0
    9.9588   -5.1566   20.1232 C   0  0  0  0  0  0  0  0  0  0  0  0
    8.4150   -1.7777   19.1847 C   0  0  0  0  0  0  0  0  0  0  0  0
    8.2289   -1.0208   20.1124 O   0  0  0  0  0  0  0  0  0  0  0  0
    8.4269   -0.7018   17.4627 C   0  0  0  0  0  0  0  0  0  0  0  0
    8.6794   -1.1485   16.0409 C   0  0  0  0  0  0  0  0  0  0  0  0
    9.2657   -0.2293   15.2741 N   0  0  0  0  0  0  0  0  0  0  0  0
    9.1124    0.8781   15.9678 N   0  0  0  0  0  0  0  0  0  0  0  0
    8.5125    0.6754   17.1706 C   0  0  0  0  0  0  0  0  0  0  0  0
    8.1529   -9.1420   25.7474 C   0  0  0  0  0  0  0  0  0  0  0  0
    7.6694   -9.9442   24.9971 O   0  0  0  0  0  0  0  0  0  0  0  0
    8.4928   -9.4838   27.2055 C   0  0  0  0  0  0  0  0  0  0  0  0
    7.3861  -10.1569   27.9156 C   0  0  0  0  0  0  0  0  0  0  0  0
    6.4697  -11.1008   27.5255 C   0  0  0  0  0  0  0  0  0  0  0  0
    5.6170  -11.3888   28.5458 N   0  0  0  0  0  0  0  0  0  0  0  0
    6.1397  -10.8085   29.5971 C   0  0  0  0  0  0  0  0  0  0  0  0
    7.1710   -9.9945   29.2565 N   0  0  0  0  0  0  0  0  0  0  0  0
   10.3268   -8.3140   24.1916 H   0  0  0  0  0  0  0  0  0  0  0  0
   10.5735   -8.4617   25.8810 H   0  0  0  0  0  0  0  0  0  0  0  0
   10.6254   -6.8575   25.2854 H   0  0  0  0  0  0  0  0  0  0  0  0
    7.6346   -7.5207   24.0882 H   0  0  0  0  0  0  0  0  0  0  0  0
    8.9881   -6.1196   24.8549 H   0  0  0  0  0  0  0  0  0  0  0  0
    7.1335   -4.7603   23.4870 H   0  0  0  0  0  0  0  0  0  0  0  0
    5.9458   -6.6781   23.4660 H   0  0  0  0  0  0  0  0  0  0  0  0
    7.7829   -3.7290   21.5538 H   0  0  0  0  0  0  0  0  0  0  0  0
    7.2660   -5.1173   20.5076 H   0  0  0  0  0  0  0  0  0  0  0  0
   10.0443   -6.2133   20.2137 H   0  0  0  0  0  0  0  0  0  0  0  0
   10.9893   -4.8958   20.6551 H   0  0  0  0  0  0  0  0  0  0  0  0
   10.3138   -5.4867   19.1111 H   0  0  0  0  0  0  0  0  0  0  0  0
    8.5492   -2.1024   15.5547 H   0  0  0  0  0  0  0  0  0  0  0  0
    9.3984    1.7577   15.5536 H   0  0  0  0  0  0  0  0  0  0  0  0
    8.2606    1.5794   17.7077 H   0  0  0  0  0  0  0  0  0  0  0  0
    8.7776   -8.5744   27.7495 H   0  0  0  0  0  0  0  0  0  0  0  0
    9.3715  -10.1398   27.1905 H   0  0  0  0  0  0  0  0  0  0  0  0
    6.3877  -11.5822   26.5587 H   0  0  0  0  0  0  0  0  0  0  0  0
    5.8203  -10.9218   30.6222 H   0  0  0  0  0  0  0  0  0  0  0  0
    7.7257   -9.4406   29.8959 H   0  0  0  0  0  0  0  0  0  0  0  0
  1  2  1  0
  2  3  1  0
  3  4  1  0
  4  5  1  0
  4  6  1  0
  6  7  1  0
  7  8  1  0
  7  9  1  0
  9 10  2  0
  9 11  1  0
 11 12  1  0
 12 13  2  0
 13 14  1  0
 14 15  1  0
  2 16  1  0
 16 17  2  0
 16 18  1  0
 18 19  1  0
 19 20  2  0
 20 21  1  0
 21 22  2  0
 22 23  1  0
 15 11  2  0
 23 19  1  0
  1 24  1  0
  1 25  1  0
  1 26  1  0
  3 27  1  0
  3 28  1  0
  4 29  1  0
  5 30  1  0
  6 31  1  0
  6 32  1  0
  8 33  1  0
  8 34  1  0
  8 35  1  0
 12 36  1  0
 14 37  1  0
 15 38  1  0
 18 39  1  0
 18 40  1  0
 20 41  1  0
 22 42  1  0
 23 43  1  0
M  END
>  <Energy>  (823) 
1039.1263669305154

>  <compound_id>  (823) 
12675

>  <target_id>  (823) 
1

>  <reference_id>  (823) 
81

>  <inspiration_ids>  (823) 
[116, 81]

>  <energy_score>  (823) 
947.5220096115153

>  <distance_score>  (823) 
6.846949151563684

>  <path>  (823) 
/opt/xchem-fragalysis-2/maxwin/BulkDock/SCRATCH/511021/C12675-P81/C12675-P81.minimised.mol

>  <scratch_subdir>  (823) 
/opt/xchem-fragalysis-2/maxwin/BulkDock/SCRATCH/511021/C12675-P81

>  <fragmenstein_runtime>  (823) 
24.070430040359497

>  <fragmenstein_outcome>  (823) 
too moved

>  <fragmenstein_mode>  (823) 
expansion

>  <fragmenstein_error>  (823) 


$$$$
C10605-P116
     RDKit          3D

 43 44  0  0  0  0  0  0  0  0999 V2000
    7.6414  -10.0227   26.2971 C   0  0  0  0  0  0  0  0  0  0  0  0
    7.6387   -9.7449   27.7652 N   0  0  0  0  0  0  0  0  0  0  0  0
    8.7121   -8.7072   27.3480 C   0  0  0  0  0  0  0  0  0  0  0  0
    8.5621   -7.4164   26.4565 C   0  0  0  0  0  0  0  0  0  0  0  0
    8.5675   -7.7498   25.0557 O   0  0  0  0  0  0  0  0  0  0  0  0
    9.5778   -6.1696   26.6820 C   0  0  0  0  0  0  0  0  0  0  0  0
   11.1579   -6.1514   26.6314 N   0  0  0  0  0  0  0  0  0  0  0  0
   10.9937   -6.8157   27.9295 C   0  0  0  0  0  0  0  0  0  0  0  0
   11.6211   -6.6572   25.3732 C   0  0  0  0  0  0  0  0  0  0  0  0
   11.9070   -7.7787   25.0393 O   0  0  0  0  0  0  0  0  0  0  0  0
   11.8745   -5.5568   24.3582 C   0  0  0  0  0  0  0  0  0  0  0  0
   12.4749   -5.7356   23.0621 C   0  0  0  0  0  0  0  0  0  0  0  0
   12.4854   -4.4972   22.4661 C   0  0  0  0  0  0  0  0  0  0  0  0
   11.9597   -3.6433   23.3894 N   0  0  0  0  0  0  0  0  0  0  0  0
   11.5760   -4.2509   24.5330 N   0  0  0  0  0  0  0  0  0  0  0  0
    6.2688   -9.5609   28.2377 C   0  0  0  0  0  0  0  0  0  0  0  0
    5.6047   -8.5641   28.3339 O   0  0  0  0  0  0  0  0  0  0  0  0
    5.7762  -10.9659   28.6705 C   0  0  0  0  0  0  0  0  0  0  0  0
    4.6928  -11.1417   29.7005 C   0  0  0  0  0  0  0  0  0  0  0  0
    4.8112  -11.2226   31.0771 C   0  0  0  0  0  0  0  0  0  0  0  0
    3.6414  -11.6013   31.6707 N   0  0  0  0  0  0  0  0  0  0  0  0
    2.7845  -11.7375   30.6907 C   0  0  0  0  0  0  0  0  0  0  0  0
    3.3795  -11.5153   29.4836 N   0  0  0  0  0  0  0  0  0  0  0  0
    7.0979  -10.9749   26.1992 H   0  0  0  0  0  0  0  0  0  0  0  0
    8.5989  -10.2670   25.8136 H   0  0  0  0  0  0  0  0  0  0  0  0
    6.9922   -9.3348   25.7455 H   0  0  0  0  0  0  0  0  0  0  0  0
    8.8875   -8.2870   28.3486 H   0  0  0  0  0  0  0  0  0  0  0  0
    9.6402   -9.2517   27.1101 H   0  0  0  0  0  0  0  0  0  0  0  0
    7.5654   -7.0045   26.6687 H   0  0  0  0  0  0  0  0  0  0  0  0
    7.6346   -7.6228   24.7697 H   0  0  0  0  0  0  0  0  0  0  0  0
    9.3492   -5.5321   25.8134 H   0  0  0  0  0  0  0  0  0  0  0  0
    9.2031   -5.5318   27.5028 H   0  0  0  0  0  0  0  0  0  0  0  0
   10.3767   -6.3648   28.7190 H   0  0  0  0  0  0  0  0  0  0  0  0
   12.0007   -6.7039   28.3634 H   0  0  0  0  0  0  0  0  0  0  0  0
   10.9447   -7.8987   27.8343 H   0  0  0  0  0  0  0  0  0  0  0  0
   12.8257   -6.6672   22.6405 H   0  0  0  0  0  0  0  0  0  0  0  0
   12.8166   -4.1545   21.4961 H   0  0  0  0  0  0  0  0  0  0  0  0
   11.8135   -2.6374   23.3020 H   0  0  0  0  0  0  0  0  0  0  0  0
    6.6477  -11.4056   29.1325 H   0  0  0  0  0  0  0  0  0  0  0  0
    5.5877  -11.5786   27.7906 H   0  0  0  0  0  0  0  0  0  0  0  0
    5.7019  -11.0540   31.6663 H   0  0  0  0  0  0  0  0  0  0  0  0
    1.7396  -11.9987   30.7792 H   0  0  0  0  0  0  0  0  0  0  0  0
    2.9051  -11.6999   28.6139 H   0  0  0  0  0  0  0  0  0  0  0  0
  1  2  1  0
  2  3  1  0
  3  4  1  0
  4  5  1  0
  4  6  1  0
  6  7  1  0
  7  8  1  0
  7  9  1  0
  9 10  2  0
  9 11  1  0
 11 12  1  0
 12 13  2  0
 13 14  1  0
 14 15  1  0
  2 16  1  0
 16 17  2  0
 16 18  1  0
 18 19  1  0
 19 20  2  0
 20 21  1  0
 21 22  2  0
 22 23  1  0
 15 11  2  0
 23 19  1  0
  1 24  1  0
  1 25  1  0
  1 26  1  0
  3 27  1  0
  3 28  1  0
  4 29  1  0
  5 30  1  0
  6 31  1  0
  6 32  1  0
  8 33  1  0
  8 34  1  0
  8 35  1  0
 12 36  1  0
 13 37  1  0
 14 38  1  0
 18 39  1  0
 18 40  1  0
 20 41  1  0
 22 42  1  0
 23 43  1  0
M  END
>  <Energy>  (824) 
257.34058834809053

>  <compound_id>  (824) 
10605

>  <target_id>  (824) 
1

>  <reference_id>  (824) 
116

>  <inspiration_ids>  (824) 
[116, 81]

>  <energy_score>  (824) 
135.31656282782467

>  <distance_score>  (824) 
7.845362055013698

>  <path>  (824) 
/opt/xchem-fragalysis-2/maxwin/BulkDock/SCRATCH/511021/C10605-P116/C10605-P116.minimised.mol

>  <scratch_subdir>  (824) 
/opt/xchem-fragalysis-2/maxwin/BulkDock/SCRATCH/511021/C10605-P116

>  <fragmenstein_runtime>  (824) 
14.500650882720947

>  <fragmenstein_outcome>  (824) 
too moved

>  <fragmenstein_mode>  (824) 
expansion

>  <fragmenstein_error>  (824) 


$$$$
C10605-P81
     RDKit          3D

 43 44  0  0  0  0  0  0  0  0999 V2000
   10.4935   -7.6770   26.2115 C   0  0  0  0  0  0  0  0  0  0  0  0
   10.5805   -8.9239   25.3720 N   0  0  0  0  0  0  0  0  0  0  0  0
   12.0635   -8.4755   25.2554 C   0  0  0  0  0  0  0  0  0  0  0  0
   12.3208   -7.6513   23.9469 C   0  0  0  0  0  0  0  0  0  0  0  0
   11.6819   -8.3667   22.8683 O   0  0  0  0  0  0  0  0  0  0  0  0
   13.8175   -7.3917   23.5551 C   0  0  0  0  0  0  0  0  0  0  0  0
   14.3197   -5.9172   23.5237 N   0  0  0  0  0  0  0  0  0  0  0  0
   14.4054   -6.1408   24.9856 C   0  0  0  0  0  0  0  0  0  0  0  0
   15.3532   -5.7662   22.5372 C   0  0  0  0  0  0  0  0  0  0  0  0
   16.5465   -5.8735   22.6360 O   0  0  0  0  0  0  0  0  0  0  0  0
   14.8068   -5.3023   21.2065 C   0  0  0  0  0  0  0  0  0  0  0  0
   13.5377   -4.7269   20.8976 C   0  0  0  0  0  0  0  0  0  0  0  0
   13.6250   -4.2957   19.5929 C   0  0  0  0  0  0  0  0  0  0  0  0
   14.8837   -4.5938   19.1888 N   0  0  0  0  0  0  0  0  0  0  0  0
   15.5838   -5.2787   20.0986 N   0  0  0  0  0  0  0  0  0  0  0  0
    9.9850  -10.0372   26.0759 C   0  0  0  0  0  0  0  0  0  0  0  0
   10.4769  -10.8434   26.8212 O   0  0  0  0  0  0  0  0  0  0  0  0
    8.5095  -10.1727   25.6537 C   0  0  0  0  0  0  0  0  0  0  0  0
    7.5359  -10.1228   26.7871 C   0  0  0  0  0  0  0  0  0  0  0  0
    6.9450   -9.0632   27.4378 C   0  0  0  0  0  0  0  0  0  0  0  0
    5.9519   -9.4784   28.2800 N   0  0  0  0  0  0  0  0  0  0  0  0
    6.0358  -10.7892   28.2674 C   0  0  0  0  0  0  0  0  0  0  0  0
    6.9672  -11.2310   27.3673 N   0  0  0  0  0  0  0  0  0  0  0  0
   10.9332   -7.8050   27.2129 H   0  0  0  0  0  0  0  0  0  0  0  0
    9.4228   -7.5540   26.4234 H   0  0  0  0  0  0  0  0  0  0  0  0
   10.7576   -6.7291   25.7298 H   0  0  0  0  0  0  0  0  0  0  0  0
   12.5854   -8.1252   26.1604 H   0  0  0  0  0  0  0  0  0  0  0  0
   12.5556   -9.4464   25.0834 H   0  0  0  0  0  0  0  0  0  0  0  0
   11.8221   -6.6842   24.0086 H   0  0  0  0  0  0  0  0  0  0  0  0
   11.0517   -8.9891   23.2818 H   0  0  0  0  0  0  0  0  0  0  0  0
   14.5255   -8.1239   23.9812 H   0  0  0  0  0  0  0  0  0  0  0  0
   13.8701   -7.6749   22.4904 H   0  0  0  0  0  0  0  0  0  0  0  0
   14.8589   -5.2035   25.3433 H   0  0  0  0  0  0  0  0  0  0  0  0
   13.4444   -6.1532   25.5078 H   0  0  0  0  0  0  0  0  0  0  0  0
   15.1447   -6.8816   25.3236 H   0  0  0  0  0  0  0  0  0  0  0  0
   12.7056   -4.5721   21.5695 H   0  0  0  0  0  0  0  0  0  0  0  0
   12.9386   -3.7693   18.9502 H   0  0  0  0  0  0  0  0  0  0  0  0
   15.3331   -4.3750   18.3053 H   0  0  0  0  0  0  0  0  0  0  0  0
    8.4156  -11.1227   25.1131 H   0  0  0  0  0  0  0  0  0  0  0  0
    8.2488   -9.3852   24.9383 H   0  0  0  0  0  0  0  0  0  0  0  0
    7.1718   -8.0152   27.3110 H   0  0  0  0  0  0  0  0  0  0  0  0
    5.4549  -11.4670   28.8747 H   0  0  0  0  0  0  0  0  0  0  0  0
    7.1991  -12.1970   27.1731 H   0  0  0  0  0  0  0  0  0  0  0  0
  1  2  1  0
  2  3  1  0
  3  4  1  0
  4  5  1  0
  4  6  1  0
  6  7  1  0
  7  8  1  0
  7  9  1  0
  9 10  2  0
  9 11  1  0
 11 12  1  0
 12 13  2  0
 13 14  1  0
 14 15  1  0
  2 16  1  0
 16 17  2  0
 16 18  1  0
 18 19  1  0
 19 20  2  0
 20 21  1  0
 21 22  2  0
 22 23  1  0
 15 11  2  0
 23 19  1  0
  1 24  1  0
  1 25  1  0
  1 26  1  0
  3 27  1  0
  3 28  1  0
  4 29  1  0
  5 30  1  0
  6 31  1  0
  6 32  1  0
  8 33  1  0
  8 34  1  0
  8 35  1  0
 12 36  1  0
 13 37  1  0
 14 38  1  0
 18 39  1  0
 18 40  1  0
 20 41  1  0
 22 42  1  0
 23 43  1  0
M  END
>  <Energy>  (825) 
236.55474806477397

>  <compound_id>  (825) 
10605

>  <target_id>  (825) 
1

>  <reference_id>  (825) 
81

>  <inspiration_ids>  (825) 
[116, 81]

>  <energy_score>  (825) 
114.53072254451223

>  <distance_score>  (825) 
7.863977468438905

>  <path>  (825) 
/opt/xchem-fragalysis-2/maxwin/BulkDock/SCRATCH/511021/C10605-P81/C10605-P81.minimised.mol

>  <scratch_subdir>  (825) 
/opt/xchem-fragalysis-2/maxwin/BulkDock/SCRATCH/511021/C10605-P81

>  <fragmenstein_runtime>  (825) 
21.942240476608276

>  <fragmenstein_outcome>  (825) 
too moved

>  <fragmenstein_mode>  (825) 
expansion

>  <fragmenstein_error>  (825) 


$$$$
C10606-P116
     RDKit          3D

 46 47  0  0  0  0  0  0  0  0999 V2000
    6.2116   -5.6253   25.0689 C   0  0  0  0  0  0  0  0  0  0  0  0
    7.0116   -6.6747   25.6747 N   0  0  0  0  0  0  0  0  0  0  0  0
    6.6711   -7.4249   24.2889 C   0  0  0  0  0  0  0  0  0  0  0  0
    6.2968   -6.9482   22.5121 C   0  0  0  0  0  0  0  0  0  0  0  0
    4.9501   -7.3031   22.8834 O   0  0  0  0  0  0  0  0  0  0  0  0
    6.6842   -7.1979   20.4765 C   0  0  0  0  0  0  0  0  0  0  0  0
    7.8364   -6.3763   19.1490 N   0  0  0  0  0  0  0  0  0  0  0  0
    6.6951   -5.2012   19.2731 C   0  0  0  0  0  0  0  0  0  0  0  0
    9.7161   -5.7315   19.4096 C   0  0  0  0  0  0  0  0  0  0  0  0
   10.2255   -5.7312   20.5022 O   0  0  0  0  0  0  0  0  0  0  0  0
   11.0029   -5.0464   18.1154 C   0  0  0  0  0  0  0  0  0  0  0  0
   11.3055   -4.4492   16.7692 C   0  0  0  0  0  0  0  0  0  0  0  0
   12.6360   -4.1252   16.6594 C   0  0  0  0  0  0  0  0  0  0  0  0
   13.1643   -4.4606   17.8423 N   0  0  0  0  0  0  0  0  0  0  0  0
   12.2763   -4.8296   18.7551 N   0  0  0  0  0  0  0  0  0  0  0  0
    6.7271   -7.5396   26.7869 C   0  0  0  0  0  0  0  0  0  0  0  0
    5.7190   -7.6731   27.4377 O   0  0  0  0  0  0  0  0  0  0  0  0
    7.8713   -8.5162   27.1211 C   0  0  0  0  0  0  0  0  0  0  0  0
    7.2078   -9.7229   27.7594 C   0  0  0  0  0  0  0  0  0  0  0  0
    6.5876  -10.8132   27.1853 C   0  0  0  0  0  0  0  0  0  0  0  0
    5.8396  -11.5018   28.1094 N   0  0  0  0  0  0  0  0  0  0  0  0
    6.0141  -10.8677   29.2432 C   0  0  0  0  0  0  0  0  0  0  0  0
    6.8909   -9.8307   29.0965 N   0  0  0  0  0  0  0  0  0  0  0  0
    7.3829   -8.9901   30.1590 C   0  0  0  0  0  0  0  0  0  0  0  0
    6.2884   -4.8285   25.8264 H   0  0  0  0  0  0  0  0  0  0  0  0
    5.1434   -5.8329   25.1322 H   0  0  0  0  0  0  0  0  0  0  0  0
    6.4847   -5.1054   24.1815 H   0  0  0  0  0  0  0  0  0  0  0  0
    7.4392   -8.1981   24.2992 H   0  0  0  0  0  0  0  0  0  0  0  0
    5.7960   -7.9944   24.6494 H   0  0  0  0  0  0  0  0  0  0  0  0
    6.4990   -5.9039   22.6546 H   0  0  0  0  0  0  0  0  0  0  0  0
    4.6528   -6.7936   23.6469 H   0  0  0  0  0  0  0  0  0  0  0  0
    6.1266   -7.7678   19.7619 H   0  0  0  0  0  0  0  0  0  0  0  0
    6.5616   -6.1982   20.8152 H   0  0  0  0  0  0  0  0  0  0  0  0
    5.6286   -5.2723   19.0648 H   0  0  0  0  0  0  0  0  0  0  0  0
    6.7227   -5.0263   18.2244 H   0  0  0  0  0  0  0  0  0  0  0  0
    7.0623   -4.4944   19.9772 H   0  0  0  0  0  0  0  0  0  0  0  0
   10.6920   -4.1789   15.9292 H   0  0  0  0  0  0  0  0  0  0  0  0
   13.2208   -3.7147   15.8500 H   0  0  0  0  0  0  0  0  0  0  0  0
   14.1381   -4.4541   18.1212 H   0  0  0  0  0  0  0  0  0  0  0  0
    8.4099   -8.8187   26.2194 H   0  0  0  0  0  0  0  0  0  0  0  0
    8.5690   -8.0257   27.8054 H   0  0  0  0  0  0  0  0  0  0  0  0
    6.5909  -11.1021   26.1428 H   0  0  0  0  0  0  0  0  0  0  0  0
    5.5632  -11.1361   30.1892 H   0  0  0  0  0  0  0  0  0  0  0  0
    7.0571   -9.3888   31.1230 H   0  0  0  0  0  0  0  0  0  0  0  0
    8.4753   -8.9869   30.1208 H   0  0  0  0  0  0  0  0  0  0  0  0
    6.9921   -7.9800   30.0177 H   0  0  0  0  0  0  0  0  0  0  0  0
  1  2  1  0
  2  3  1  0
  3  4  1  0
  4  5  1  0
  4  6  1  0
  6  7  1  0
  7  8  1  0
  7  9  1  0
  9 10  2  0
  9 11  1  0
 11 12  1  0
 12 13  2  0
 13 14  1  0
 14 15  1  0
  2 16  1  0
 16 17  2  0
 16 18  1  0
 18 19  1  0
 19 20  2  0
 20 21  1  0
 21 22  2  0
 22 23  1  0
 23 24  1  0
 15 11  2  0
 23 19  1  0
  1 25  1  0
  1 26  1  0
  1 27  1  0
  3 28  1  0
  3 29  1  0
  4 30  1  0
  5 31  1  0
  6 32  1  0
  6 33  1  0
  8 34  1  0
  8 35  1  0
  8 36  1  0
 12 37  1  0
 13 38  1  0
 14 39  1  0
 18 40  1  0
 18 41  1  0
 20 42  1  0
 22 43  1  0
 24 44  1  0
 24 45  1  0
 24 46  1  0
M  END
>  <Energy>  (826) 
774.48025895445983

>  <compound_id>  (826) 
10606

>  <target_id>  (826) 
1

>  <reference_id>  (826) 
116

>  <inspiration_ids>  (826) 
[116, 81]

>  <energy_score>  (826) 
637.1350379522498

>  <distance_score>  (826) 
6.8273200415083455

>  <path>  (826) 
/opt/xchem-fragalysis-2/maxwin/BulkDock/SCRATCH/511021/C10606-P116/C10606-P116.minimised.mol

>  <scratch_subdir>  (826) 
/opt/xchem-fragalysis-2/maxwin/BulkDock/SCRATCH/511021/C10606-P116

>  <fragmenstein_runtime>  (826) 
25.365710735321045

>  <fragmenstein_outcome>  (826) 
too moved

>  <fragmenstein_mode>  (826) 
expansion

>  <fragmenstein_error>  (826) 


$$$$
C10606-P81
     RDKit          3D

 46 47  0  0  0  0  0  0  0  0999 V2000
   12.8568  -11.0227   27.2014 C   0  0  0  0  0  0  0  0  0  0  0  0
   11.4546  -10.8308   26.7240 N   0  0  0  0  0  0  0  0  0  0  0  0
   12.0534   -9.4952   26.2031 C   0  0  0  0  0  0  0  0  0  0  0  0
   12.8131   -9.5563   24.8200 C   0  0  0  0  0  0  0  0  0  0  0  0
   14.1831   -9.2103   25.0009 O   0  0  0  0  0  0  0  0  0  0  0  0
   12.0982   -8.7014   23.7238 C   0  0  0  0  0  0  0  0  0  0  0  0
   12.6768   -7.5597   22.9259 N   0  0  0  0  0  0  0  0  0  0  0  0
   12.5293   -6.8466   24.2457 C   0  0  0  0  0  0  0  0  0  0  0  0
   13.9923   -7.3572   22.4020 C   0  0  0  0  0  0  0  0  0  0  0  0
   14.9965   -8.0044   22.5422 O   0  0  0  0  0  0  0  0  0  0  0  0
   13.9989   -6.1744   21.4597 C   0  0  0  0  0  0  0  0  0  0  0  0
   15.0968   -5.6385   20.7224 C   0  0  0  0  0  0  0  0  0  0  0  0
   14.5822   -4.6150   19.9558 C   0  0  0  0  0  0  0  0  0  0  0  0
   13.2561   -4.5619   20.2554 N   0  0  0  0  0  0  0  0  0  0  0  0
   12.8756   -5.5083   21.1239 N   0  0  0  0  0  0  0  0  0  0  0  0
   10.2371  -10.5789   27.4582 C   0  0  0  0  0  0  0  0  0  0  0  0
   10.0607  -10.3711   28.6299 O   0  0  0  0  0  0  0  0  0  0  0  0
    9.0374  -10.7216   26.4896 C   0  0  0  0  0  0  0  0  0  0  0  0
    7.7065  -10.4878   27.1581 C   0  0  0  0  0  0  0  0  0  0  0  0
    6.8851   -9.3776   27.1560 C   0  0  0  0  0  0  0  0  0  0  0  0
    5.7511   -9.5700   27.9024 N   0  0  0  0  0  0  0  0  0  0  0  0
    5.9082  -10.7718   28.4097 C   0  0  0  0  0  0  0  0  0  0  0  0
    7.0417  -11.3858   27.9588 N   0  0  0  0  0  0  0  0  0  0  0  0
    7.4723  -12.7117   28.3302 C   0  0  0  0  0  0  0  0  0  0  0  0
   12.8020  -11.9981   27.7084 H   0  0  0  0  0  0  0  0  0  0  0  0
   13.1625  -10.3610   28.0251 H   0  0  0  0  0  0  0  0  0  0  0  0
   13.6133  -11.1936   26.4294 H   0  0  0  0  0  0  0  0  0  0  0  0
   11.1526   -8.8923   26.0186 H   0  0  0  0  0  0  0  0  0  0  0  0
   12.5595   -8.8687   26.9588 H   0  0  0  0  0  0  0  0  0  0  0  0
   12.7956  -10.5976   24.4722 H   0  0  0  0  0  0  0  0  0  0  0  0
   14.6089   -9.1345   24.1190 H   0  0  0  0  0  0  0  0  0  0  0  0
   11.0169   -8.5716   23.9016 H   0  0  0  0  0  0  0  0  0  0  0  0
   12.0474   -9.4365   22.9017 H   0  0  0  0  0  0  0  0  0  0  0  0
   12.7235   -5.7882   24.0120 H   0  0  0  0  0  0  0  0  0  0  0  0
   13.3157   -7.0693   24.9750 H   0  0  0  0  0  0  0  0  0  0  0  0
   11.5207   -6.8136   24.6828 H   0  0  0  0  0  0  0  0  0  0  0  0
   16.1233   -5.9778   20.7550 H   0  0  0  0  0  0  0  0  0  0  0  0
   15.0369   -3.9299   19.2550 H   0  0  0  0  0  0  0  0  0  0  0  0
   12.5356   -3.9405   19.8924 H   0  0  0  0  0  0  0  0  0  0  0  0
    9.0610  -11.7274   26.0542 H   0  0  0  0  0  0  0  0  0  0  0  0
    9.1559  -10.0025   25.6709 H   0  0  0  0  0  0  0  0  0  0  0  0
    7.0693   -8.4476   26.6421 H   0  0  0  0  0  0  0  0  0  0  0  0
    5.2431  -11.2497   29.1045 H   0  0  0  0  0  0  0  0  0  0  0  0
    6.6762  -13.2109   28.8892 H   0  0  0  0  0  0  0  0  0  0  0  0
    7.6869  -13.2766   27.4195 H   0  0  0  0  0  0  0  0  0  0  0  0
    8.3657  -12.6262   28.9529 H   0  0  0  0  0  0  0  0  0  0  0  0
  1  2  1  0
  2  3  1  0
  3  4  1  0
  4  5  1  0
  4  6  1  0
  6  7  1  0
  7  8  1  0
  7  9  1  0
  9 10  2  0
  9 11  1  0
 11 12  1  0
 12 13  2  0
 13 14  1  0
 14 15  1  0
  2 16  1  0
 16 17  2  0
 16 18  1  0
 18 19  1  0
 19 20  2  0
 20 21  1  0
 21 22  2  0
 22 23  1  0
 23 24  1  0
 15 11  2  0
 23 19  1  0
  1 25  1  0
  1 26  1  0
  1 27  1  0
  3 28  1  0
  3 29  1  0
  4 30  1  0
  5 31  1  0
  6 32  1  0
  6 33  1  0
  8 34  1  0
  8 35  1  0
  8 36  1  0
 12 37  1  0
 13 38  1  0
 14 39  1  0
 18 40  1  0
 18 41  1  0
 20 42  1  0
 22 43  1  0
 24 44  1  0
 24 45  1  0
 24 46  1  0
M  END
>  <Energy>  (827) 
236.36605887343836

>  <compound_id>  (827) 
10606

>  <target_id>  (827) 
1

>  <reference_id>  (827) 
81

>  <inspiration_ids>  (827) 
[116, 81]

>  <energy_score>  (827) 
99.02083787123297

>  <distance_score>  (827) 
7.976243698483527

>  <path>  (827) 
/opt/xchem-fragalysis-2/maxwin/BulkDock/SCRATCH/511021/C10606-P81/C10606-P81.minimised.mol

>  <scratch_subdir>  (827) 
/opt/xchem-fragalysis-2/maxwin/BulkDock/SCRATCH/511021/C10606-P81

>  <fragmenstein_runtime>  (827) 
36.28617310523987

>  <fragmenstein_outcome>  (827) 
too moved

>  <fragmenstein_mode>  (827) 
expansion

>  <fragmenstein_error>  (827) 


$$$$
C12676-P116
     RDKit          3D

 46 47  0  0  0  0  0  0  0  0999 V2000
    2.7309   -8.6025   22.4301 C   0  0  0  0  0  0  0  0  0  0  0  0
    3.9638   -9.3221   23.2097 N   0  0  0  0  0  0  0  0  0  0  0  0
    4.7679   -7.6843   22.8743 C   0  0  0  0  0  0  0  0  0  0  0  0
    6.2514   -6.9550   22.0304 C   0  0  0  0  0  0  0  0  0  0  0  0
    6.4496   -5.8340   23.0131 O   0  0  0  0  0  0  0  0  0  0  0  0
    6.7953   -7.0415   19.9930 C   0  0  0  0  0  0  0  0  0  0  0  0
    7.3354   -5.6921   18.7803 N   0  0  0  0  0  0  0  0  0  0  0  0
    9.2363   -6.3115   19.3929 C   0  0  0  0  0  0  0  0  0  0  0  0
    7.2345   -5.6169   16.8232 C   0  0  0  0  0  0  0  0  0  0  0  0
    6.8696   -6.5005   16.0655 O   0  0  0  0  0  0  0  0  0  0  0  0
    8.0279   -4.0353   15.7259 C   0  0  0  0  0  0  0  0  0  0  0  0
    9.5809   -3.6114   15.1245 C   0  0  0  0  0  0  0  0  0  0  0  0
    9.7429   -2.3173   14.8531 N   0  0  0  0  0  0  0  0  0  0  0  0
    8.4969   -1.8861   14.6790 N   0  0  0  0  0  0  0  0  0  0  0  0
    7.5172   -2.7707   15.0500 C   0  0  0  0  0  0  0  0  0  0  0  0
    4.2690  -11.0177   22.4959 C   0  0  0  0  0  0  0  0  0  0  0  0
    5.0396  -11.2294   21.5882 O   0  0  0  0  0  0  0  0  0  0  0  0
    2.9583  -12.2971   23.4628 C   0  0  0  0  0  0  0  0  0  0  0  0
    1.5902  -12.3819   24.8420 C   0  0  0  0  0  0  0  0  0  0  0  0
    0.9584  -11.3891   25.6734 C   0  0  0  0  0  0  0  0  0  0  0  0
    0.2867  -11.6054   26.8608 N   0  0  0  0  0  0  0  0  0  0  0  0
    0.3283  -12.8801   26.8990 C   0  0  0  0  0  0  0  0  0  0  0  0
    1.4179  -13.2637   26.1173 N   0  0  0  0  0  0  0  0  0  0  0  0
    2.4077  -13.8001   27.0353 C   0  0  0  0  0  0  0  0  0  0  0  0
    2.3534   -7.9965   23.2606 H   0  0  0  0  0  0  0  0  0  0  0  0
    2.3553   -9.4184   21.7844 H   0  0  0  0  0  0  0  0  0  0  0  0
    1.6100   -8.6697   22.1017 H   0  0  0  0  0  0  0  0  0  0  0  0
    5.1567   -7.5713   23.8949 H   0  0  0  0  0  0  0  0  0  0  0  0
    4.8080   -8.0788   21.9612 H   0  0  0  0  0  0  0  0  0  0  0  0
    6.7880   -7.4758   22.7731 H   0  0  0  0  0  0  0  0  0  0  0  0
    6.8254   -5.0258   22.6349 H   0  0  0  0  0  0  0  0  0  0  0  0
    6.6039   -5.8921   20.1757 H   0  0  0  0  0  0  0  0  0  0  0  0
    6.1445   -7.6196   19.3589 H   0  0  0  0  0  0  0  0  0  0  0  0
    9.2535   -7.3563   19.9113 H   0  0  0  0  0  0  0  0  0  0  0  0
    9.6842   -5.5931   20.1616 H   0  0  0  0  0  0  0  0  0  0  0  0
   10.0645   -5.8883   18.7886 H   0  0  0  0  0  0  0  0  0  0  0  0
   10.5039   -4.1847   15.1785 H   0  0  0  0  0  0  0  0  0  0  0  0
    8.3783   -1.0196   14.1549 H   0  0  0  0  0  0  0  0  0  0  0  0
    6.5079   -2.5008   14.7663 H   0  0  0  0  0  0  0  0  0  0  0  0
    3.5076  -12.7453   24.2785 H   0  0  0  0  0  0  0  0  0  0  0  0
    2.8318  -13.1235   22.8120 H   0  0  0  0  0  0  0  0  0  0  0  0
    0.8533  -10.3805   25.4487 H   0  0  0  0  0  0  0  0  0  0  0  0
   -0.1349  -13.5107   27.6474 H   0  0  0  0  0  0  0  0  0  0  0  0
    2.0149  -14.7217   27.4854 H   0  0  0  0  0  0  0  0  0  0  0  0
    3.3224  -13.9317   26.4537 H   0  0  0  0  0  0  0  0  0  0  0  0
    2.5528  -13.1214   27.8872 H   0  0  0  0  0  0  0  0  0  0  0  0
  1  2  1  0
  2  3  1  0
  3  4  1  0
  4  5  1  0
  4  6  1  0
  6  7  1  0
  7  8  1  0
  7  9  1  0
  9 10  2  0
  9 11  1  0
 11 12  1  0
 12 13  2  0
 13 14  1  0
 14 15  1  0
  2 16  1  0
 16 17  2  0
 16 18  1  0
 18 19  1  0
 19 20  2  0
 20 21  1  0
 21 22  2  0
 22 23  1  0
 23 24  1  0
 15 11  2  0
 23 19  1  0
  1 25  1  0
  1 26  1  0
  1 27  1  0
  3 28  1  0
  3 29  1  0
  4 30  1  0
  5 31  1  0
  6 32  1  0
  6 33  1  0
  8 34  1  0
  8 35  1  0
  8 36  1  0
 12 37  1  0
 14 38  1  0
 15 39  1  0
 18 40  1  0
 18 41  1  0
 20 42  1  0
 22 43  1  0
 24 44  1  0
 24 45  1  0
 24 46  1  0
M  END
>  <Energy>  (828) 
1276.3987115477619

>  <compound_id>  (828) 
12676

>  <target_id>  (828) 
1

>  <reference_id>  (828) 
116

>  <inspiration_ids>  (828) 
[116, 81]

>  <energy_score>  (828) 
1175.9730887843175

>  <distance_score>  (828) 
4.130081720313307

>  <path>  (828) 
/opt/xchem-fragalysis-2/maxwin/BulkDock/SCRATCH/511021/C12676-P116/C12676-P116.minimised.mol

>  <scratch_subdir>  (828) 
/opt/xchem-fragalysis-2/maxwin/BulkDock/SCRATCH/511021/C12676-P116

>  <fragmenstein_runtime>  (828) 
15.37732744216919

>  <fragmenstein_outcome>  (828) 
too moved

>  <fragmenstein_mode>  (828) 
expansion

>  <fragmenstein_error>  (828) 


$$$$
C12676-P81
     RDKit          3D

 46 47  0  0  0  0  0  0  0  0999 V2000
    2.6608   -8.4620   22.8091 C   0  0  0  0  0  0  0  0  0  0  0  0
    4.1487   -9.6114   23.2412 N   0  0  0  0  0  0  0  0  0  0  0  0
    4.8778   -7.7526   23.0165 C   0  0  0  0  0  0  0  0  0  0  0  0
    6.4955   -6.9771   22.0771 C   0  0  0  0  0  0  0  0  0  0  0  0
    7.1917   -5.8320   22.8259 O   0  0  0  0  0  0  0  0  0  0  0  0
    6.9582   -7.1927   20.0463 C   0  0  0  0  0  0  0  0  0  0  0  0
    7.4309   -5.8346   18.8365 N   0  0  0  0  0  0  0  0  0  0  0  0
    9.4404   -6.3770   19.3183 C   0  0  0  0  0  0  0  0  0  0  0  0
    7.2192   -5.8217   16.9391 C   0  0  0  0  0  0  0  0  0  0  0  0
    6.8515   -6.6878   16.1851 O   0  0  0  0  0  0  0  0  0  0  0  0
    7.8608   -4.1995   15.9003 C   0  0  0  0  0  0  0  0  0  0  0  0
    9.3373   -3.7141   15.1032 C   0  0  0  0  0  0  0  0  0  0  0  0
    9.4021   -2.3883   14.9240 N   0  0  0  0  0  0  0  0  0  0  0  0
    8.1215   -2.0402   14.8074 N   0  0  0  0  0  0  0  0  0  0  0  0
    7.2212   -2.9684   15.2662 C   0  0  0  0  0  0  0  0  0  0  0  0
    4.3190  -11.0473   22.2967 C   0  0  0  0  0  0  0  0  0  0  0  0
    4.9490  -11.2301   21.2461 O   0  0  0  0  0  0  0  0  0  0  0  0
    3.1824  -12.5098   23.0242 C   0  0  0  0  0  0  0  0  0  0  0  0
    3.2173  -14.4301   22.9635 C   0  0  0  0  0  0  0  0  0  0  0  0
    4.2040  -15.1504   23.7114 C   0  0  0  0  0  0  0  0  0  0  0  0
    4.4514  -16.4272   23.2951 N   0  0  0  0  0  0  0  0  0  0  0  0
    3.5616  -16.6559   22.3808 C   0  0  0  0  0  0  0  0  0  0  0  0
    2.7130  -15.5667   22.1515 N   0  0  0  0  0  0  0  0  0  0  0  0
    1.7703  -15.7821   21.0426 C   0  0  0  0  0  0  0  0  0  0  0  0
    2.6590   -7.7909   23.6985 H   0  0  0  0  0  0  0  0  0  0  0  0
    2.0984   -8.7438   21.9086 H   0  0  0  0  0  0  0  0  0  0  0  0
    1.5674   -8.2698   23.1716 H   0  0  0  0  0  0  0  0  0  0  0  0
    5.3946   -7.7272   24.0674 H   0  0  0  0  0  0  0  0  0  0  0  0
    4.3548   -7.1084   23.6829 H   0  0  0  0  0  0  0  0  0  0  0  0
    7.0267   -7.4245   22.8927 H   0  0  0  0  0  0  0  0  0  0  0  0
    6.6862   -5.6797   23.6424 H   0  0  0  0  0  0  0  0  0  0  0  0
    6.0619   -7.5729   19.5268 H   0  0  0  0  0  0  0  0  0  0  0  0
    7.6057   -7.7796   19.5406 H   0  0  0  0  0  0  0  0  0  0  0  0
    9.6253   -7.4672   19.8112 H   0  0  0  0  0  0  0  0  0  0  0  0
    9.8721   -5.6084   20.0377 H   0  0  0  0  0  0  0  0  0  0  0  0
   10.2231   -5.8568   18.7149 H   0  0  0  0  0  0  0  0  0  0  0  0
   10.2818   -4.2468   15.0467 H   0  0  0  0  0  0  0  0  0  0  0  0
    7.9108   -1.1624   14.3367 H   0  0  0  0  0  0  0  0  0  0  0  0
    6.1867   -2.7431   15.0651 H   0  0  0  0  0  0  0  0  0  0  0  0
    3.3497  -12.6200   24.0753 H   0  0  0  0  0  0  0  0  0  0  0  0
    2.1926  -12.0968   23.1352 H   0  0  0  0  0  0  0  0  0  0  0  0
    4.6804  -14.7872   24.6110 H   0  0  0  0  0  0  0  0  0  0  0  0
    3.4757  -17.5828   21.8272 H   0  0  0  0  0  0  0  0  0  0  0  0
    1.9945  -15.1750   20.1714 H   0  0  0  0  0  0  0  0  0  0  0  0
    1.8228  -16.8270   20.7151 H   0  0  0  0  0  0  0  0  0  0  0  0
    0.7413  -15.6129   21.3449 H   0  0  0  0  0  0  0  0  0  0  0  0
  1  2  1  0
  2  3  1  0
  3  4  1  0
  4  5  1  0
  4  6  1  0
  6  7  1  0
  7  8  1  0
  7  9  1  0
  9 10  2  0
  9 11  1  0
 11 12  1  0
 12 13  2  0
 13 14  1  0
 14 15  1  0
  2 16  1  0
 16 17  2  0
 16 18  1  0
 18 19  1  0
 19 20  2  0
 20 21  1  0
 21 22  2  0
 22 23  1  0
 23 24  1  0
 15 11  2  0
 23 19  1  0
  1 25  1  0
  1 26  1  0
  1 27  1  0
  3 28  1  0
  3 29  1  0
  4 30  1  0
  5 31  1  0
  6 32  1  0
  6 33  1  0
  8 34  1  0
  8 35  1  0
  8 36  1  0
 12 37  1  0
 14 38  1  0
 15 39  1  0
 18 40  1  0
 18 41  1  0
 20 42  1  0
 22 43  1  0
 24 44  1  0
 24 45  1  0
 24 46  1  0
M  END
>  <Energy>  (829) 
1201.1301037984983

>  <compound_id>  (829) 
12676

>  <target_id>  (829) 
1

>  <reference_id>  (829) 
81

>  <inspiration_ids>  (829) 
[116, 81]

>  <energy_score>  (829) 
1100.7044810350462

>  <distance_score>  (829) 
6.276892318300723

>  <path>  (829) 
/opt/xchem-fragalysis-2/maxwin/BulkDock/SCRATCH/511021/C12676-P81/C12676-P81.minimised.mol

>  <scratch_subdir>  (829) 
/opt/xchem-fragalysis-2/maxwin/BulkDock/SCRATCH/511021/C12676-P81

>  <fragmenstein_runtime>  (829) 
28.114216804504395

>  <fragmenstein_outcome>  (829) 
too moved

>  <fragmenstein_mode>  (829) 
expansion

>  <fragmenstein_error>  (829) 


$$$$
C12677-P116
     RDKit          3D

 43 44  0  0  0  0  0  0  0  0999 V2000
    6.0527   -7.6376   19.2645 C   0  0  0  0  0  0  0  0  0  0  0  0
    4.5376   -8.5133   18.3560 C   0  0  0  0  0  0  0  0  0  0  0  0
    2.4022   -9.0030   18.7510 C   0  0  0  0  0  0  0  0  0  0  0  0
    1.7263   -9.8662   20.5281 N   0  0  0  0  0  0  0  0  0  0  0  0
    0.2149  -10.5438   21.0040 C   0  0  0  0  0  0  0  0  0  0  0  0
   -0.8897  -10.5714   20.4137 O   0  0  0  0  0  0  0  0  0  0  0  0
    0.2771  -11.6042   22.6557 C   0  0  0  0  0  0  0  0  0  0  0  0
    1.3244  -12.6359   23.8828 S   0  0  0  0  0  0  0  0  0  0  0  0
    0.9086  -12.6555   25.8043 C   0  0  0  0  0  0  0  0  0  0  0  0
    1.6672  -13.4286   26.5887 N   0  0  0  0  0  0  0  0  0  0  0  0
    1.3876  -13.1202   27.8970 C   0  0  0  0  0  0  0  0  0  0  0  0
    0.3729  -12.2075   27.9406 C   0  0  0  0  0  0  0  0  0  0  0  0
   -0.1446  -12.2715   26.6520 N   0  0  0  0  0  0  0  0  0  0  0  0
   -1.5442  -12.6505   26.5848 C   0  0  0  0  0  0  0  0  0  0  0  0
    5.0206   -6.8211   17.4566 C   0  0  0  0  0  0  0  0  0  0  0  0
    6.0875   -5.7624   17.1272 N   0  0  0  0  0  0  0  0  0  0  0  0
    7.2128   -5.6730   15.9098 C   0  0  0  0  0  0  0  0  0  0  0  0
    7.4241   -6.5270   15.1116 O   0  0  0  0  0  0  0  0  0  0  0  0
    8.2556   -4.0045   15.5198 C   0  0  0  0  0  0  0  0  0  0  0  0
    9.7919   -3.6355   15.0726 C   0  0  0  0  0  0  0  0  0  0  0  0
   10.0238   -2.3286   14.9265 N   0  0  0  0  0  0  0  0  0  0  0  0
    8.7950   -1.8312   14.7441 N   0  0  0  0  0  0  0  0  0  0  0  0
    7.7726   -2.7048   15.0233 C   0  0  0  0  0  0  0  0  0  0  0  0
    6.4186   -6.6944   18.8225 H   0  0  0  0  0  0  0  0  0  0  0  0
    6.1979   -7.6780   20.3442 H   0  0  0  0  0  0  0  0  0  0  0  0
    7.1486   -7.7289   19.3464 H   0  0  0  0  0  0  0  0  0  0  0  0
    4.9416   -9.4189   17.9957 H   0  0  0  0  0  0  0  0  0  0  0  0
    2.3202   -9.7451   17.9688 H   0  0  0  0  0  0  0  0  0  0  0  0
    1.7242   -8.2192   18.4927 H   0  0  0  0  0  0  0  0  0  0  0  0
    2.3673   -9.9454   21.2620 H   0  0  0  0  0  0  0  0  0  0  0  0
    0.3960  -11.1111   23.5357 H   0  0  0  0  0  0  0  0  0  0  0  0
   -0.3695  -12.4577   22.5632 H   0  0  0  0  0  0  0  0  0  0  0  0
    1.9428  -13.5557   28.7158 H   0  0  0  0  0  0  0  0  0  0  0  0
   -0.1673  -11.7596   28.7629 H   0  0  0  0  0  0  0  0  0  0  0  0
   -2.1413  -11.7776   26.8036 H   0  0  0  0  0  0  0  0  0  0  0  0
   -1.7274  -13.4183   27.3411 H   0  0  0  0  0  0  0  0  0  0  0  0
   -1.7992  -13.0620   25.6198 H   0  0  0  0  0  0  0  0  0  0  0  0
    4.3734   -6.5866   16.6215 H   0  0  0  0  0  0  0  0  0  0  0  0
    4.6721   -6.2093   18.2630 H   0  0  0  0  0  0  0  0  0  0  0  0
    6.1693   -4.9882   17.6850 H   0  0  0  0  0  0  0  0  0  0  0  0
   10.6542   -4.2939   15.0246 H   0  0  0  0  0  0  0  0  0  0  0  0
    8.7179   -0.9429   14.2507 H   0  0  0  0  0  0  0  0  0  0  0  0
    6.7754   -2.3887   14.7438 H   0  0  0  0  0  0  0  0  0  0  0  0
  1  2  1  0
  2  3  1  0
  3  4  1  0
  4  5  1  0
  5  6  2  0
  5  7  1  0
  7  8  1  0
  8  9  1  0
  9 10  2  0
 10 11  1  0
 11 12  2  0
 12 13  1  0
 13 14  1  0
  2 15  1  0
 15 16  1  0
 16 17  1  0
 17 18  2  0
 17 19  1  0
 19 20  1  0
 20 21  2  0
 21 22  1  0
 22 23  1  0
 13  9  1  0
 23 19  2  0
  1 24  1  0
  1 25  1  0
  1 26  1  0
  2 27  1  0
  3 28  1  0
  3 29  1  0
  4 30  1  0
  7 31  1  0
  7 32  1  0
 11 33  1  0
 12 34  1  0
 14 35  1  0
 14 36  1  0
 14 37  1  0
 15 38  1  0
 15 39  1  0
 16 40  1  0
 20 41  1  0
 22 42  1  0
 23 43  1  0
M  END
>  <Energy>  (830) 
851.32047409389884

>  <compound_id>  (830) 
12677

>  <target_id>  (830) 
1

>  <reference_id>  (830) 
116

>  <inspiration_ids>  (830) 
[116, 81]

>  <energy_score>  (830) 
828.862219485029

>  <distance_score>  (830) 
3.1437223800511913

>  <path>  (830) 
/opt/xchem-fragalysis-2/maxwin/BulkDock/SCRATCH/511021/C12677-P116/C12677-P116.minimised.mol

>  <scratch_subdir>  (830) 
/opt/xchem-fragalysis-2/maxwin/BulkDock/SCRATCH/511021/C12677-P116

>  <fragmenstein_runtime>  (830) 
21.346208810806274

>  <fragmenstein_outcome>  (830) 
too moved

>  <fragmenstein_mode>  (830) 
expansion

>  <fragmenstein_error>  (830) 


$$$$
C12677-P81
     RDKit          3D

 43 44  0  0  0  0  0  0  0  0999 V2000
    6.5699   -6.5733   18.7158 C   0  0  0  0  0  0  0  0  0  0  0  0
    5.3859   -7.1713   18.0480 C   0  0  0  0  0  0  0  0  0  0  0  0
    4.9612   -9.1456   18.2796 C   0  0  0  0  0  0  0  0  0  0  0  0
    5.7063  -10.5774   19.3536 N   0  0  0  0  0  0  0  0  0  0  0  0
    5.1607  -12.0904   19.5802 C   0  0  0  0  0  0  0  0  0  0  0  0
    4.2381  -12.6958   19.0428 O   0  0  0  0  0  0  0  0  0  0  0  0
    5.6555  -12.8203   20.5890 C   0  0  0  0  0  0  0  0  0  0  0  0
    3.7472  -12.0990   21.9749 S   0  0  0  0  0  0  0  0  0  0  0  0
    3.0315  -13.2047   23.3879 C   0  0  0  0  0  0  0  0  0  0  0  0
    3.7297  -14.1609   23.9688 N   0  0  0  0  0  0  0  0  0  0  0  0
    3.5216  -13.9167   25.2651 C   0  0  0  0  0  0  0  0  0  0  0  0
    2.0287  -13.2892   25.4137 C   0  0  0  0  0  0  0  0  0  0  0  0
    1.7847  -13.0026   24.0777 N   0  0  0  0  0  0  0  0  0  0  0  0
    0.2790  -14.0018   23.6773 C   0  0  0  0  0  0  0  0  0  0  0  0
    5.6076   -6.0954   16.7144 C   0  0  0  0  0  0  0  0  0  0  0  0
    7.2441   -5.4843   15.9580 N   0  0  0  0  0  0  0  0  0  0  0  0
    7.8184   -3.6999   15.5176 C   0  0  0  0  0  0  0  0  0  0  0  0
    7.1260   -2.6998   15.5982 O   0  0  0  0  0  0  0  0  0  0  0  0
    9.3697   -3.2731   15.0177 C   0  0  0  0  0  0  0  0  0  0  0  0
   10.7181   -3.7373   15.1044 C   0  0  0  0  0  0  0  0  0  0  0  0
   11.6553   -2.8118   14.8669 N   0  0  0  0  0  0  0  0  0  0  0  0
   10.9418   -1.7004   14.6992 N   0  0  0  0  0  0  0  0  0  0  0  0
    9.6178   -1.8896   14.9316 C   0  0  0  0  0  0  0  0  0  0  0  0
    6.4895   -5.5229   18.9992 H   0  0  0  0  0  0  0  0  0  0  0  0
    6.9716   -7.1938   19.5003 H   0  0  0  0  0  0  0  0  0  0  0  0
    7.2685   -6.4972   17.9639 H   0  0  0  0  0  0  0  0  0  0  0  0
    5.7781   -7.4818   17.1482 H   0  0  0  0  0  0  0  0  0  0  0  0
    4.1873   -9.6608   17.6268 H   0  0  0  0  0  0  0  0  0  0  0  0
    4.0259   -8.9509   18.7255 H   0  0  0  0  0  0  0  0  0  0  0  0
    6.5409  -10.4343   19.9058 H   0  0  0  0  0  0  0  0  0  0  0  0
    6.6222  -12.4172   20.8401 H   0  0  0  0  0  0  0  0  0  0  0  0
    5.5740  -13.7356   20.0764 H   0  0  0  0  0  0  0  0  0  0  0  0
    4.1228  -14.3489   26.0684 H   0  0  0  0  0  0  0  0  0  0  0  0
    1.3084  -13.2607   26.2176 H   0  0  0  0  0  0  0  0  0  0  0  0
   -0.6655  -13.9442   24.2514 H   0  0  0  0  0  0  0  0  0  0  0  0
   -0.0809  -14.0566   22.6521 H   0  0  0  0  0  0  0  0  0  0  0  0
    0.5181  -14.6617   24.3642 H   0  0  0  0  0  0  0  0  0  0  0  0
    4.8263   -6.3050   15.9981 H   0  0  0  0  0  0  0  0  0  0  0  0
    5.0365   -5.2485   17.0818 H   0  0  0  0  0  0  0  0  0  0  0  0
    7.9698   -6.1425   15.7254 H   0  0  0  0  0  0  0  0  0  0  0  0
   11.0979   -4.6742   15.4535 H   0  0  0  0  0  0  0  0  0  0  0  0
   11.4225   -0.8433   14.4509 H   0  0  0  0  0  0  0  0  0  0  0  0
    8.9221   -1.0597   14.9206 H   0  0  0  0  0  0  0  0  0  0  0  0
  1  2  1  0
  2  3  1  0
  3  4  1  0
  4  5  1  0
  5  6  2  0
  5  7  1  0
  7  8  1  0
  8  9  1  0
  9 10  2  0
 10 11  1  0
 11 12  2  0
 12 13  1  0
 13 14  1  0
  2 15  1  0
 15 16  1  0
 16 17  1  0
 17 18  2  0
 17 19  1  0
 19 20  1  0
 20 21  2  0
 21 22  1  0
 22 23  1  0
 13  9  1  0
 23 19  2  0
  1 24  1  0
  1 25  1  0
  1 26  1  0
  2 27  1  0
  3 28  1  0
  3 29  1  0
  4 30  1  0
  7 31  1  0
  7 32  1  0
 11 33  1  0
 12 34  1  0
 14 35  1  0
 14 36  1  0
 14 37  1  0
 15 38  1  0
 15 39  1  0
 16 40  1  0
 20 41  1  0
 22 42  1  0
 23 43  1  0
M  END
>  <Energy>  (831) 
732.85394094134665

>  <compound_id>  (831) 
12677

>  <target_id>  (831) 
1

>  <reference_id>  (831) 
81

>  <inspiration_ids>  (831) 
[116, 81]

>  <energy_score>  (831) 
710.3956863324804

>  <distance_score>  (831) 
4.408915910990746

>  <path>  (831) 
/opt/xchem-fragalysis-2/maxwin/BulkDock/SCRATCH/511021/C12677-P81/C12677-P81.minimised.mol

>  <scratch_subdir>  (831) 
/opt/xchem-fragalysis-2/maxwin/BulkDock/SCRATCH/511021/C12677-P81

>  <fragmenstein_runtime>  (831) 
16.840819358825684

>  <fragmenstein_outcome>  (831) 
too moved

>  <fragmenstein_mode>  (831) 
expansion

>  <fragmenstein_error>  (831) 


$$$$
C10607-P116
     RDKit          3D

 42 44  0  0  0  0  0  0  0  0999 V2000
   10.5113   -8.6043   21.0917 C   0  0  0  0  0  0  0  0  0  0  0  0
    8.9671   -7.5320   20.6386 C   0  0  0  0  0  0  0  0  0  0  0  0
    9.9697   -5.9169   20.1058 C   0  0  0  0  0  0  0  0  0  0  0  0
    6.9845   -6.8136   21.8801 C   0  0  0  0  0  0  0  0  0  0  0  0
    6.8357   -5.6536   21.7537 O   0  0  0  0  0  0  0  0  0  0  0  0
    6.3233   -7.6064   22.6778 N   0  0  0  0  0  0  0  0  0  0  0  0
    5.1459   -7.3806   23.5747 C   0  0  0  0  0  0  0  0  0  0  0  0
    4.2907   -8.7821   23.0987 C   0  0  0  0  0  0  0  0  0  0  0  0
    5.0352  -10.7191   23.0262 C   0  0  0  0  0  0  0  0  0  0  0  0
    3.5028  -12.1072   23.0858 C   0  0  0  0  0  0  0  0  0  0  0  0
    2.3126  -12.2851   22.5612 N   0  0  0  0  0  0  0  0  0  0  0  0
    1.2085  -12.4180   23.5789 C   0  0  0  0  0  0  0  0  0  0  0  0
    1.7583  -12.6907   24.7324 C   0  0  0  0  0  0  0  0  0  0  0  0
    3.0986  -12.8849   24.3123 N   0  0  0  0  0  0  0  0  0  0  0  0
    6.4501  -10.1576   24.3702 C   0  0  0  0  0  0  0  0  0  0  0  0
    6.6964   -8.1328   24.4388 C   0  0  0  0  0  0  0  0  0  0  0  0
   10.4904   -7.1046   22.0060 C   0  0  0  0  0  0  0  0  0  0  0  0
   10.8375   -7.6656   23.4613 C   0  0  0  0  0  0  0  0  0  0  0  0
   12.0247   -7.1058   23.8589 C   0  0  0  0  0  0  0  0  0  0  0  0
   12.3950   -6.2774   22.8636 N   0  0  0  0  0  0  0  0  0  0  0  0
   11.5692   -6.2445   21.8309 N   0  0  0  0  0  0  0  0  0  0  0  0
   11.1474   -9.4636   20.8938 H   0  0  0  0  0  0  0  0  0  0  0  0
   10.4499   -9.0655   22.0701 H   0  0  0  0  0  0  0  0  0  0  0  0
   11.4734   -8.1068   20.8709 H   0  0  0  0  0  0  0  0  0  0  0  0
    9.8927   -5.8161   19.0753 H   0  0  0  0  0  0  0  0  0  0  0  0
    9.7159   -5.1041   20.7073 H   0  0  0  0  0  0  0  0  0  0  0  0
   11.0696   -5.8144   20.0960 H   0  0  0  0  0  0  0  0  0  0  0  0
    4.7686   -6.5221   23.1876 H   0  0  0  0  0  0  0  0  0  0  0  0
    5.0143   -7.0038   24.5962 H   0  0  0  0  0  0  0  0  0  0  0  0
    3.2162   -8.6546   22.7897 H   0  0  0  0  0  0  0  0  0  0  0  0
    4.5075   -8.2826   22.1994 H   0  0  0  0  0  0  0  0  0  0  0  0
    5.5173  -10.9910   22.0929 H   0  0  0  0  0  0  0  0  0  0  0  0
    0.1866  -12.4111   23.2562 H   0  0  0  0  0  0  0  0  0  0  0  0
    1.3902  -12.9383   25.7208 H   0  0  0  0  0  0  0  0  0  0  0  0
    3.7677  -13.0455   25.0468 H   0  0  0  0  0  0  0  0  0  0  0  0
    6.3605  -10.5811   25.3819 H   0  0  0  0  0  0  0  0  0  0  0  0
    7.4004  -10.5490   23.9944 H   0  0  0  0  0  0  0  0  0  0  0  0
    6.2183   -7.7964   25.3721 H   0  0  0  0  0  0  0  0  0  0  0  0
    7.7681   -8.0236   24.6073 H   0  0  0  0  0  0  0  0  0  0  0  0
   10.2943   -8.4032   24.0381 H   0  0  0  0  0  0  0  0  0  0  0  0
   12.6192   -7.2270   24.7525 H   0  0  0  0  0  0  0  0  0  0  0  0
   13.2188   -5.6874   22.8177 H   0  0  0  0  0  0  0  0  0  0  0  0
  1  2  1  0
  2  3  1  0
  2  4  1  0
  4  5  2  0
  4  6  1  0
  6  7  1  0
  7  8  1  0
  8  9  1  0
  9 10  1  0
 10 11  2  0
 11 12  1  0
 12 13  2  0
 13 14  1  0
  9 15  1  0
 15 16  1  0
  2 17  1  0
 17 18  1  0
 18 19  2  0
 19 20  1  0
 20 21  1  0
 16  6  1  0
 21 17  2  0
 14 10  1  0
  1 22  1  0
  1 23  1  0
  1 24  1  0
  3 25  1  0
  3 26  1  0
  3 27  1  0
  7 28  1  0
  7 29  1  0
  8 30  1  0
  8 31  1  0
  9 32  1  0
 12 33  1  0
 13 34  1  0
 14 35  1  0
 15 36  1  0
 15 37  1  0
 16 38  1  0
 16 39  1  0
 18 40  1  0
 19 41  1  0
 20 42  1  0
M  END
>  <Energy>  (832) 
1302.4329360325362

>  <compound_id>  (832) 
10607

>  <target_id>  (832) 
1

>  <reference_id>  (832) 
116

>  <inspiration_ids>  (832) 
[116, 81]

>  <energy_score>  (832) 
1235.7281840829246

>  <distance_score>  (832) 
7.749581851061693

>  <path>  (832) 
/opt/xchem-fragalysis-2/maxwin/BulkDock/SCRATCH/511021/C10607-P116/C10607-P116.minimised.mol

>  <scratch_subdir>  (832) 
/opt/xchem-fragalysis-2/maxwin/BulkDock/SCRATCH/511021/C10607-P116

>  <fragmenstein_runtime>  (832) 
15.817736864089966

>  <fragmenstein_outcome>  (832) 
too moved

>  <fragmenstein_mode>  (832) 
expansion

>  <fragmenstein_error>  (832) 


$$$$
C10607-P81
     RDKit          3D

 42 44  0  0  0  0  0  0  0  0999 V2000
   10.8556   -7.4493   20.9917 C   0  0  0  0  0  0  0  0  0  0  0  0
   10.1995   -5.5861   20.5570 C   0  0  0  0  0  0  0  0  0  0  0  0
   11.6438   -4.6048   21.6085 C   0  0  0  0  0  0  0  0  0  0  0  0
    8.1654   -4.9843   21.3936 C   0  0  0  0  0  0  0  0  0  0  0  0
    7.8141   -3.8777   21.0279 O   0  0  0  0  0  0  0  0  0  0  0  0
    7.3347   -6.2230   22.6799 N   0  0  0  0  0  0  0  0  0  0  0  0
    5.9218   -6.0766   23.7706 C   0  0  0  0  0  0  0  0  0  0  0  0
    4.2526   -7.2448   23.9500 C   0  0  0  0  0  0  0  0  0  0  0  0
    2.8505   -8.2133   23.0309 C   0  0  0  0  0  0  0  0  0  0  0  0
    1.0351   -7.8438   23.1110 C   0  0  0  0  0  0  0  0  0  0  0  0
    0.3381   -7.1023   23.9195 N   0  0  0  0  0  0  0  0  0  0  0  0
   -0.9075   -7.5923   23.8716 C   0  0  0  0  0  0  0  0  0  0  0  0
   -1.0756   -8.3381   22.6491 C   0  0  0  0  0  0  0  0  0  0  0  0
    0.1906   -8.4293   22.1526 N   0  0  0  0  0  0  0  0  0  0  0  0
    4.6119   -7.9543   22.9443 C   0  0  0  0  0  0  0  0  0  0  0  0
    6.3738   -7.1724   22.1743 C   0  0  0  0  0  0  0  0  0  0  0  0
   11.8981   -5.2447   19.5870 C   0  0  0  0  0  0  0  0  0  0  0  0
   12.3297   -4.5506   18.2680 C   0  0  0  0  0  0  0  0  0  0  0  0
   13.6801   -4.3397   18.3107 C   0  0  0  0  0  0  0  0  0  0  0  0
   14.0651   -4.8926   19.4798 N   0  0  0  0  0  0  0  0  0  0  0  0
   13.1217   -5.6366   20.0857 N   0  0  0  0  0  0  0  0  0  0  0  0
   10.7811   -7.8823   22.0142 H   0  0  0  0  0  0  0  0  0  0  0  0
   10.3117   -8.1649   20.3646 H   0  0  0  0  0  0  0  0  0  0  0  0
   11.9462   -7.4545   20.9262 H   0  0  0  0  0  0  0  0  0  0  0  0
   12.4222   -5.3104   21.9630 H   0  0  0  0  0  0  0  0  0  0  0  0
   12.0665   -3.7479   21.0752 H   0  0  0  0  0  0  0  0  0  0  0  0
   11.4722   -4.1639   22.6072 H   0  0  0  0  0  0  0  0  0  0  0  0
    6.6053   -6.9927   23.9341 H   0  0  0  0  0  0  0  0  0  0  0  0
    5.9312   -6.7663   24.5979 H   0  0  0  0  0  0  0  0  0  0  0  0
    4.7714   -7.9710   24.8109 H   0  0  0  0  0  0  0  0  0  0  0  0
    3.3857   -6.7591   24.4795 H   0  0  0  0  0  0  0  0  0  0  0  0
    2.5360   -8.4380   22.0593 H   0  0  0  0  0  0  0  0  0  0  0  0
   -1.6124   -7.2679   24.6137 H   0  0  0  0  0  0  0  0  0  0  0  0
   -1.9445   -8.7879   22.1845 H   0  0  0  0  0  0  0  0  0  0  0  0
    0.4892   -9.0229   21.3892 H   0  0  0  0  0  0  0  0  0  0  0  0
    4.6485   -8.0887   21.9846 H   0  0  0  0  0  0  0  0  0  0  0  0
    4.5799   -9.1839   23.1812 H   0  0  0  0  0  0  0  0  0  0  0  0
    6.5823   -7.2751   21.1021 H   0  0  0  0  0  0  0  0  0  0  0  0
    5.5784   -6.6820   22.3760 H   0  0  0  0  0  0  0  0  0  0  0  0
   11.6901   -4.2346   17.4555 H   0  0  0  0  0  0  0  0  0  0  0  0
   14.3672   -3.8415   17.6429 H   0  0  0  0  0  0  0  0  0  0  0  0
   14.9941   -4.8968   19.8872 H   0  0  0  0  0  0  0  0  0  0  0  0
  1  2  1  0
  2  3  1  0
  2  4  1  0
  4  5  2  0
  4  6  1  0
  6  7  1  0
  7  8  1  0
  8  9  1  0
  9 10  1  0
 10 11  2  0
 11 12  1  0
 12 13  2  0
 13 14  1  0
  9 15  1  0
 15 16  1  0
  2 17  1  0
 17 18  1  0
 18 19  2  0
 19 20  1  0
 20 21  1  0
 16  6  1  0
 21 17  2  0
 14 10  1  0
  1 22  1  0
  1 23  1  0
  1 24  1  0
  3 25  1  0
  3 26  1  0
  3 27  1  0
  7 28  1  0
  7 29  1  0
  8 30  1  0
  8 31  1  0
  9 32  1  0
 12 33  1  0
 13 34  1  0
 14 35  1  0
 15 36  1  0
 15 37  1  0
 16 38  1  0
 16 39  1  0
 18 40  1  0
 19 41  1  0
 20 42  1  0
M  END
>  <Energy>  (833) 
1554.0633954550763

>  <compound_id>  (833) 
10607

>  <target_id>  (833) 
1

>  <reference_id>  (833) 
81

>  <inspiration_ids>  (833) 
[116, 81]

>  <energy_score>  (833) 
1487.358643505484

>  <distance_score>  (833) 
6.78760325627938

>  <path>  (833) 
/opt/xchem-fragalysis-2/maxwin/BulkDock/SCRATCH/511021/C10607-P81/C10607-P81.minimised.mol

>  <scratch_subdir>  (833) 
/opt/xchem-fragalysis-2/maxwin/BulkDock/SCRATCH/511021/C10607-P81

>  <fragmenstein_runtime>  (833) 
17.28554058074951

>  <fragmenstein_outcome>  (833) 
too moved

>  <fragmenstein_mode>  (833) 
expansion

>  <fragmenstein_error>  (833) 


$$$$
C10608-P116
     RDKit          3D

 42 43  0  0  0  0  0  0  0  0999 V2000
    0.1579  -11.3807   30.9548 C   0  0  0  0  0  0  0  0  0  0  0  0
    1.4687  -11.7599   30.3821 C   0  0  0  0  0  0  0  0  0  0  0  0
    2.6981  -11.4049   30.7406 N   0  0  0  0  0  0  0  0  0  0  0  0
    3.5116  -11.6531   29.6489 C   0  0  0  0  0  0  0  0  0  0  0  0
    5.0033  -11.2137   29.5749 C   0  0  0  0  0  0  0  0  0  0  0  0
    5.3764  -10.0997   28.5139 C   0  0  0  0  0  0  0  0  0  0  0  0
    4.4936   -9.3588   28.1703 O   0  0  0  0  0  0  0  0  0  0  0  0
    6.7410  -10.2088   28.0480 N   0  0  0  0  0  0  0  0  0  0  0  0
    6.8281  -11.2055   26.9141 C   0  0  0  0  0  0  0  0  0  0  0  0
    7.5447   -9.3324   27.0369 C   0  0  0  0  0  0  0  0  0  0  0  0
    7.9373   -7.8929   27.5976 C   0  0  0  0  0  0  0  0  0  0  0  0
    9.4064   -7.5757   28.0076 N   0  0  0  0  0  0  0  0  0  0  0  0
    9.0348   -8.4203   29.1692 C   0  0  0  0  0  0  0  0  0  0  0  0
   10.2980   -7.8317   26.9070 C   0  0  0  0  0  0  0  0  0  0  0  0
   10.8972   -8.8308   26.6048 O   0  0  0  0  0  0  0  0  0  0  0  0
   10.5724   -6.5828   26.0818 C   0  0  0  0  0  0  0  0  0  0  0  0
   10.0752   -5.2549   26.2422 C   0  0  0  0  0  0  0  0  0  0  0  0
   10.7953   -4.4607   25.3771 C   0  0  0  0  0  0  0  0  0  0  0  0
   11.6546   -5.2978   24.7398 N   0  0  0  0  0  0  0  0  0  0  0  0
   11.4744   -6.5913   25.0665 N   0  0  0  0  0  0  0  0  0  0  0  0
    2.7889  -12.5084   28.8370 C   0  0  0  0  0  0  0  0  0  0  0  0
    1.5046  -12.5325   29.2691 N   0  0  0  0  0  0  0  0  0  0  0  0
   -0.2858  -12.2344   31.4738 H   0  0  0  0  0  0  0  0  0  0  0  0
    0.2329  -10.5424   31.6446 H   0  0  0  0  0  0  0  0  0  0  0  0
   -0.5332  -11.0772   30.1603 H   0  0  0  0  0  0  0  0  0  0  0  0
    5.5949  -12.0981   29.3554 H   0  0  0  0  0  0  0  0  0  0  0  0
    5.3122  -10.8603   30.5631 H   0  0  0  0  0  0  0  0  0  0  0  0
    6.2319  -12.0758   27.2119 H   0  0  0  0  0  0  0  0  0  0  0  0
    6.3715  -10.9097   25.9646 H   0  0  0  0  0  0  0  0  0  0  0  0
    7.8385  -11.6096   26.7695 H   0  0  0  0  0  0  0  0  0  0  0  0
    6.8846   -9.0724   26.1930 H   0  0  0  0  0  0  0  0  0  0  0  0
    8.4830   -9.7939   26.7007 H   0  0  0  0  0  0  0  0  0  0  0  0
    7.1834   -7.4747   28.2856 H   0  0  0  0  0  0  0  0  0  0  0  0
    7.8208   -7.2416   26.7159 H   0  0  0  0  0  0  0  0  0  0  0  0
    9.9198   -8.3339   29.8180 H   0  0  0  0  0  0  0  0  0  0  0  0
    8.2259   -8.0539   29.8168 H   0  0  0  0  0  0  0  0  0  0  0  0
    9.0273   -9.4936   28.9543 H   0  0  0  0  0  0  0  0  0  0  0  0
    9.3314   -4.9160   26.9503 H   0  0  0  0  0  0  0  0  0  0  0  0
   10.7826   -3.3970   25.1846 H   0  0  0  0  0  0  0  0  0  0  0  0
   12.3552   -5.0667   24.0418 H   0  0  0  0  0  0  0  0  0  0  0  0
    3.0317  -13.0810   27.9686 H   0  0  0  0  0  0  0  0  0  0  0  0
    0.7191  -12.9760   28.8123 H   0  0  0  0  0  0  0  0  0  0  0  0
  1  2  1  0
  2  3  2  0
  3  4  1  0
  4  5  1  0
  5  6  1  0
  6  7  2  0
  6  8  1  0
  8  9  1  0
  8 10  1  0
 10 11  1  0
 11 12  1  0
 12 13  1  0
 12 14  1  0
 14 15  2  0
 14 16  1  0
 16 17  1  0
 17 18  2  0
 18 19  1  0
 19 20  1  0
  4 21  2  0
 21 22  1  0
 22  2  1  0
 20 16  2  0
  1 23  1  0
  1 24  1  0
  1 25  1  0
  5 26  1  0
  5 27  1  0
  9 28  1  0
  9 29  1  0
  9 30  1  0
 10 31  1  0
 10 32  1  0
 11 33  1  0
 11 34  1  0
 13 35  1  0
 13 36  1  0
 13 37  1  0
 17 38  1  0
 18 39  1  0
 19 40  1  0
 21 41  1  0
 22 42  1  0
M  END
>  <Energy>  (834) 
221.13531171373873

>  <compound_id>  (834) 
10608

>  <target_id>  (834) 
1

>  <reference_id>  (834) 
116

>  <inspiration_ids>  (834) 
[116, 81]

>  <energy_score>  (834) 
122.50329487664294

>  <distance_score>  (834) 
8.755800972638633

>  <path>  (834) 
/opt/xchem-fragalysis-2/maxwin/BulkDock/SCRATCH/511021/C10608-P116/C10608-P116.minimised.mol

>  <scratch_subdir>  (834) 
/opt/xchem-fragalysis-2/maxwin/BulkDock/SCRATCH/511021/C10608-P116

>  <fragmenstein_runtime>  (834) 
25.234506845474243

>  <fragmenstein_outcome>  (834) 
too moved

>  <fragmenstein_mode>  (834) 
expansion

>  <fragmenstein_error>  (834) 


$$$$
C10608-P81
     RDKit          3D

 42 43  0  0  0  0  0  0  0  0999 V2000
    5.1153  -17.2173   24.0604 C   0  0  0  0  0  0  0  0  0  0  0  0
    4.8176  -15.9625   24.7897 C   0  0  0  0  0  0  0  0  0  0  0  0
    4.7064  -14.7232   24.3791 N   0  0  0  0  0  0  0  0  0  0  0  0
    4.8165  -13.8805   25.4724 C   0  0  0  0  0  0  0  0  0  0  0  0
    5.9276  -12.5632   25.8554 C   0  0  0  0  0  0  0  0  0  0  0  0
    7.4647  -12.4726   25.9742 C   0  0  0  0  0  0  0  0  0  0  0  0
    8.1346  -13.4460   25.8433 O   0  0  0  0  0  0  0  0  0  0  0  0
    7.8487  -11.0926   26.2219 N   0  0  0  0  0  0  0  0  0  0  0  0
    7.9000  -10.8269   27.7021 C   0  0  0  0  0  0  0  0  0  0  0  0
    9.2616  -10.4237   26.2804 C   0  0  0  0  0  0  0  0  0  0  0  0
   10.0525  -10.6713   24.9204 C   0  0  0  0  0  0  0  0  0  0  0  0
   11.6030  -10.5917   24.9153 N   0  0  0  0  0  0  0  0  0  0  0  0
   11.4599  -11.9808   25.4275 C   0  0  0  0  0  0  0  0  0  0  0  0
   12.0731  -10.1053   23.6458 C   0  0  0  0  0  0  0  0  0  0  0  0
   12.3833  -10.7015   22.6482 O   0  0  0  0  0  0  0  0  0  0  0  0
   12.3098   -8.6206   23.5909 C   0  0  0  0  0  0  0  0  0  0  0  0
   13.1258   -7.9763   22.5972 C   0  0  0  0  0  0  0  0  0  0  0  0
   13.1935   -6.6539   22.9542 C   0  0  0  0  0  0  0  0  0  0  0  0
   12.4405   -6.5474   24.0865 N   0  0  0  0  0  0  0  0  0  0  0  0
   11.8174   -7.6972   24.4414 N   0  0  0  0  0  0  0  0  0  0  0  0
    4.0017  -14.5352   26.3291 C   0  0  0  0  0  0  0  0  0  0  0  0
    4.2090  -15.9015   26.0020 N   0  0  0  0  0  0  0  0  0  0  0  0
    6.1916  -17.4003   24.0361 H   0  0  0  0  0  0  0  0  0  0  0  0
    4.7333  -17.1764   23.0381 H   0  0  0  0  0  0  0  0  0  0  0  0
    4.6441  -18.0785   24.5462 H   0  0  0  0  0  0  0  0  0  0  0  0
    5.8339  -11.8717   25.0316 H   0  0  0  0  0  0  0  0  0  0  0  0
    5.6208  -12.2213   26.8452 H   0  0  0  0  0  0  0  0  0  0  0  0
    8.0305   -9.7741   27.9944 H   0  0  0  0  0  0  0  0  0  0  0  0
    6.8959  -11.0599   28.0818 H   0  0  0  0  0  0  0  0  0  0  0  0
    8.5422  -11.5346   28.2475 H   0  0  0  0  0  0  0  0  0  0  0  0
    9.9157  -10.7619   27.0943 H   0  0  0  0  0  0  0  0  0  0  0  0
    9.1261   -9.3323   26.3512 H   0  0  0  0  0  0  0  0  0  0  0  0
    9.7640   -9.7935   24.3262 H   0  0  0  0  0  0  0  0  0  0  0  0
    9.6361  -11.4973   24.3214 H   0  0  0  0  0  0  0  0  0  0  0  0
   11.1043  -12.7056   24.6798 H   0  0  0  0  0  0  0  0  0  0  0  0
   11.0544  -12.1188   26.4299 H   0  0  0  0  0  0  0  0  0  0  0  0
   12.5081  -12.2937   25.5515 H   0  0  0  0  0  0  0  0  0  0  0  0
   13.6419   -8.4620   21.7800 H   0  0  0  0  0  0  0  0  0  0  0  0
   13.7133   -5.8038   22.5344 H   0  0  0  0  0  0  0  0  0  0  0  0
   12.2701   -5.7144   24.6442 H   0  0  0  0  0  0  0  0  0  0  0  0
    3.6110  -14.3689   27.2809 H   0  0  0  0  0  0  0  0  0  0  0  0
    3.8049  -16.6719   26.5235 H   0  0  0  0  0  0  0  0  0  0  0  0
  1  2  1  0
  2  3  2  0
  3  4  1  0
  4  5  1  0
  5  6  1  0
  6  7  2  0
  6  8  1  0
  8  9  1  0
  8 10  1  0
 10 11  1  0
 11 12  1  0
 12 13  1  0
 12 14  1  0
 14 15  2  0
 14 16  1  0
 16 17  1  0
 17 18  2  0
 18 19  1  0
 19 20  1  0
  4 21  2  0
 21 22  1  0
 22  2  1  0
 20 16  2  0
  1 23  1  0
  1 24  1  0
  1 25  1  0
  5 26  1  0
  5 27  1  0
  9 28  1  0
  9 29  1  0
  9 30  1  0
 10 31  1  0
 10 32  1  0
 11 33  1  0
 11 34  1  0
 13 35  1  0
 13 36  1  0
 13 37  1  0
 17 38  1  0
 18 39  1  0
 19 40  1  0
 21 41  1  0
 22 42  1  0
M  END
>  <Energy>  (835) 
277.84181121611368

>  <compound_id>  (835) 
10608

>  <target_id>  (835) 
1

>  <reference_id>  (835) 
81

>  <inspiration_ids>  (835) 
[116, 81]

>  <energy_score>  (835) 
179.20979437902145

>  <distance_score>  (835) 
8.838927246717196

>  <path>  (835) 
/opt/xchem-fragalysis-2/maxwin/BulkDock/SCRATCH/511021/C10608-P81/C10608-P81.minimised.mol

>  <scratch_subdir>  (835) 
/opt/xchem-fragalysis-2/maxwin/BulkDock/SCRATCH/511021/C10608-P81

>  <fragmenstein_runtime>  (835) 
27.48497986793518

>  <fragmenstein_outcome>  (835) 
too moved

>  <fragmenstein_mode>  (835) 
expansion

>  <fragmenstein_error>  (835) 


$$$$
C12678-P116
     RDKit          3D

 42 43  0  0  0  0  0  0  0  0999 V2000
   -0.5736   -8.6125   26.3853 C   0  0  0  0  0  0  0  0  0  0  0  0
   -0.6028   -7.2775   25.8068 C   0  0  0  0  0  0  0  0  0  0  0  0
   -1.8023   -6.6405   25.8330 N   0  0  0  0  0  0  0  0  0  0  0  0
   -1.7510   -5.8833   24.7340 C   0  0  0  0  0  0  0  0  0  0  0  0
   -0.4960   -5.6551   24.3996 N   0  0  0  0  0  0  0  0  0  0  0  0
    0.3183   -6.3533   25.2391 C   0  0  0  0  0  0  0  0  0  0  0  0
    1.9774   -6.4396   24.9287 C   0  0  0  0  0  0  0  0  0  0  0  0
    3.7259   -5.5425   24.7148 C   0  0  0  0  0  0  0  0  0  0  0  0
    3.9326   -4.4102   25.1510 O   0  0  0  0  0  0  0  0  0  0  0  0
    4.7242   -6.5600   23.7142 N   0  0  0  0  0  0  0  0  0  0  0  0
    5.5909   -7.4111   24.5793 C   0  0  0  0  0  0  0  0  0  0  0  0
    6.3486   -6.1925   22.8556 C   0  0  0  0  0  0  0  0  0  0  0  0
    6.5561   -6.1634   20.7353 C   0  0  0  0  0  0  0  0  0  0  0  0
    7.0594   -5.0426   19.1365 N   0  0  0  0  0  0  0  0  0  0  0  0
    5.7708   -4.2773   19.5365 C   0  0  0  0  0  0  0  0  0  0  0  0
    7.0320   -5.4189   17.2413 C   0  0  0  0  0  0  0  0  0  0  0  0
    6.5702   -6.4282   16.7464 O   0  0  0  0  0  0  0  0  0  0  0  0
    8.0319   -4.1803   15.8302 C   0  0  0  0  0  0  0  0  0  0  0  0
    9.6425   -3.7067   15.1907 C   0  0  0  0  0  0  0  0  0  0  0  0
    9.8038   -2.4399   14.8241 N   0  0  0  0  0  0  0  0  0  0  0  0
    8.5667   -1.9985   14.6722 N   0  0  0  0  0  0  0  0  0  0  0  0
    7.5787   -2.8366   15.1170 C   0  0  0  0  0  0  0  0  0  0  0  0
   -1.4157   -9.0886   25.8756 H   0  0  0  0  0  0  0  0  0  0  0  0
    0.1510   -9.3647   26.1852 H   0  0  0  0  0  0  0  0  0  0  0  0
   -0.6039   -8.5162   27.4684 H   0  0  0  0  0  0  0  0  0  0  0  0
   -2.6409   -6.9765   26.2767 H   0  0  0  0  0  0  0  0  0  0  0  0
   -2.6341   -5.4753   24.2590 H   0  0  0  0  0  0  0  0  0  0  0  0
    1.4572   -6.1870   24.0009 H   0  0  0  0  0  0  0  0  0  0  0  0
    2.1304   -7.3124   24.3793 H   0  0  0  0  0  0  0  0  0  0  0  0
    6.0736   -6.6710   25.2462 H   0  0  0  0  0  0  0  0  0  0  0  0
    4.9832   -7.9246   25.3119 H   0  0  0  0  0  0  0  0  0  0  0  0
    6.4144   -8.0831   24.3795 H   0  0  0  0  0  0  0  0  0  0  0  0
    6.5122   -5.1811   23.2363 H   0  0  0  0  0  0  0  0  0  0  0  0
    6.9805   -6.9321   23.2514 H   0  0  0  0  0  0  0  0  0  0  0  0
    6.4948   -7.2675   20.9154 H   0  0  0  0  0  0  0  0  0  0  0  0
    6.8563   -7.0220   19.9008 H   0  0  0  0  0  0  0  0  0  0  0  0
    5.4360   -3.3177   19.1467 H   0  0  0  0  0  0  0  0  0  0  0  0
    4.9269   -4.8401   19.1273 H   0  0  0  0  0  0  0  0  0  0  0  0
    5.7496   -3.5031   20.3331 H   0  0  0  0  0  0  0  0  0  0  0  0
   10.5863   -4.2327   15.3480 H   0  0  0  0  0  0  0  0  0  0  0  0
    8.4506   -1.1486   14.1194 H   0  0  0  0  0  0  0  0  0  0  0  0
    6.5763   -2.5323   14.8407 H   0  0  0  0  0  0  0  0  0  0  0  0
  1  2  1  0
  2  3  1  0
  3  4  1  0
  4  5  2  0
  5  6  1  0
  6  7  1  0
  7  8  1  0
  8  9  2  0
  8 10  1  0
 10 11  1  0
 10 12  1  0
 12 13  1  0
 13 14  1  0
 14 15  1  0
 14 16  1  0
 16 17  2  0
 16 18  1  0
 18 19  1  0
 19 20  2  0
 20 21  1  0
 21 22  1  0
  6  2  2  0
 22 18  2  0
  1 23  1  0
  1 24  1  0
  1 25  1  0
  3 26  1  0
  4 27  1  0
  7 28  1  0
  7 29  1  0
 11 30  1  0
 11 31  1  0
 11 32  1  0
 12 33  1  0
 12 34  1  0
 13 35  1  0
 13 36  1  0
 15 37  1  0
 15 38  1  0
 15 39  1  0
 19 40  1  0
 21 41  1  0
 22 42  1  0
M  END
>  <Energy>  (836) 
1010.7753341448438

>  <compound_id>  (836) 
12678

>  <target_id>  (836) 
1

>  <reference_id>  (836) 
116

>  <inspiration_ids>  (836) 
[116, 81]

>  <energy_score>  (836) 
955.3086632788627

>  <distance_score>  (836) 
5.631807251603

>  <path>  (836) 
/opt/xchem-fragalysis-2/maxwin/BulkDock/SCRATCH/511021/C12678-P116/C12678-P116.minimised.mol

>  <scratch_subdir>  (836) 
/opt/xchem-fragalysis-2/maxwin/BulkDock/SCRATCH/511021/C12678-P116

>  <fragmenstein_runtime>  (836) 
16.68666672706604

>  <fragmenstein_outcome>  (836) 
too moved

>  <fragmenstein_mode>  (836) 
expansion

>  <fragmenstein_error>  (836) 


$$$$
C12678-P81
     RDKit          3D

 42 43  0  0  0  0  0  0  0  0999 V2000
    4.7879  -15.5744   24.7554 C   0  0  0  0  0  0  0  0  0  0  0  0
    4.0545  -14.2559   25.0340 C   0  0  0  0  0  0  0  0  0  0  0  0
    3.4504  -14.1060   26.3195 N   0  0  0  0  0  0  0  0  0  0  0  0
    1.9704  -13.5524   25.9790 C   0  0  0  0  0  0  0  0  0  0  0  0
    2.0439  -12.9816   24.7725 N   0  0  0  0  0  0  0  0  0  0  0  0
    3.2934  -13.3127   24.2048 C   0  0  0  0  0  0  0  0  0  0  0  0
    3.5154  -12.4634   22.9841 C   0  0  0  0  0  0  0  0  0  0  0  0
    3.8229  -11.0376   22.6800 C   0  0  0  0  0  0  0  0  0  0  0  0
    2.9215  -10.5596   22.4000 O   0  0  0  0  0  0  0  0  0  0  0  0
    5.0071  -10.0020   22.6201 N   0  0  0  0  0  0  0  0  0  0  0  0
    5.2665   -9.1032   24.3990 C   0  0  0  0  0  0  0  0  0  0  0  0
    5.1340   -7.9115   21.9171 C   0  0  0  0  0  0  0  0  0  0  0  0
    5.7676   -7.6693   19.7020 C   0  0  0  0  0  0  0  0  0  0  0  0
    6.4397   -6.0835   18.4694 N   0  0  0  0  0  0  0  0  0  0  0  0
    5.0747   -5.7045   18.5479 C   0  0  0  0  0  0  0  0  0  0  0  0
    6.9841   -6.0192   16.6663 C   0  0  0  0  0  0  0  0  0  0  0  0
    6.9618   -6.8858   15.8261 O   0  0  0  0  0  0  0  0  0  0  0  0
    7.9031   -4.3700   15.9229 C   0  0  0  0  0  0  0  0  0  0  0  0
    9.3891   -3.8350   15.1106 C   0  0  0  0  0  0  0  0  0  0  0  0
    9.4869   -2.5089   14.9400 N   0  0  0  0  0  0  0  0  0  0  0  0
    8.2179   -2.1232   14.8564 N   0  0  0  0  0  0  0  0  0  0  0  0
    7.2981   -3.0365   15.3075 C   0  0  0  0  0  0  0  0  0  0  0  0
    4.3644  -16.4298   25.2941 H   0  0  0  0  0  0  0  0  0  0  0  0
    4.7613  -15.8333   23.6912 H   0  0  0  0  0  0  0  0  0  0  0  0
    5.7651  -15.7118   25.1791 H   0  0  0  0  0  0  0  0  0  0  0  0
    3.6297  -14.6528   27.1502 H   0  0  0  0  0  0  0  0  0  0  0  0
    1.1248  -13.4666   26.5738 H   0  0  0  0  0  0  0  0  0  0  0  0
    2.4563  -12.2204   23.0785 H   0  0  0  0  0  0  0  0  0  0  0  0
    3.3269  -12.8809   21.9899 H   0  0  0  0  0  0  0  0  0  0  0  0
    5.0269   -8.0192   24.3264 H   0  0  0  0  0  0  0  0  0  0  0  0
    6.0961   -9.8669   24.6078 H   0  0  0  0  0  0  0  0  0  0  0  0
    6.2382   -8.5750   24.7582 H   0  0  0  0  0  0  0  0  0  0  0  0
    5.9060   -7.2035   22.4989 H   0  0  0  0  0  0  0  0  0  0  0  0
    4.2605   -7.8731   22.6235 H   0  0  0  0  0  0  0  0  0  0  0  0
    5.1577   -8.3585   18.9827 H   0  0  0  0  0  0  0  0  0  0  0  0
    4.9781   -7.2733   19.2661 H   0  0  0  0  0  0  0  0  0  0  0  0
    4.7669   -6.5455   17.9054 H   0  0  0  0  0  0  0  0  0  0  0  0
    4.7374   -5.1849   17.6237 H   0  0  0  0  0  0  0  0  0  0  0  0
    4.5135   -5.1580   19.2840 H   0  0  0  0  0  0  0  0  0  0  0  0
   10.3166   -4.3835   14.9628 H   0  0  0  0  0  0  0  0  0  0  0  0
    8.0258   -1.2401   14.3880 H   0  0  0  0  0  0  0  0  0  0  0  0
    6.2702   -2.8000   15.0807 H   0  0  0  0  0  0  0  0  0  0  0  0
  1  2  1  0
  2  3  1  0
  3  4  1  0
  4  5  2  0
  5  6  1  0
  6  7  1  0
  7  8  1  0
  8  9  2  0
  8 10  1  0
 10 11  1  0
 10 12  1  0
 12 13  1  0
 13 14  1  0
 14 15  1  0
 14 16  1  0
 16 17  2  0
 16 18  1  0
 18 19  1  0
 19 20  2  0
 20 21  1  0
 21 22  1  0
  6  2  2  0
 22 18  2  0
  1 23  1  0
  1 24  1  0
  1 25  1  0
  3 26  1  0
  4 27  1  0
  7 28  1  0
  7 29  1  0
 11 30  1  0
 11 31  1  0
 11 32  1  0
 12 33  1  0
 12 34  1  0
 13 35  1  0
 13 36  1  0
 15 37  1  0
 15 38  1  0
 15 39  1  0
 19 40  1  0
 21 41  1  0
 22 42  1  0
M  END
>  <Energy>  (837) 
1335.3511780167855

>  <compound_id>  (837) 
12678

>  <target_id>  (837) 
1

>  <reference_id>  (837) 
81

>  <inspiration_ids>  (837) 
[116, 81]

>  <energy_score>  (837) 
1279.8845071508094

>  <distance_score>  (837) 
5.031439564547902

>  <path>  (837) 
/opt/xchem-fragalysis-2/maxwin/BulkDock/SCRATCH/511021/C12678-P81/C12678-P81.minimised.mol

>  <scratch_subdir>  (837) 
/opt/xchem-fragalysis-2/maxwin/BulkDock/SCRATCH/511021/C12678-P81

>  <fragmenstein_runtime>  (837) 
22.212907552719116

>  <fragmenstein_outcome>  (837) 
too moved

>  <fragmenstein_mode>  (837) 
expansion

>  <fragmenstein_error>  (837) 


$$$$
C10609-P116
     RDKit          3D

 42 43  0  0  0  0  0  0  0  0999 V2000
    1.7597  -13.6512   27.2515 C   0  0  0  0  0  0  0  0  0  0  0  0
    0.9396  -12.6746   26.4793 C   0  0  0  0  0  0  0  0  0  0  0  0
   -0.1672  -12.2392   27.1870 N   0  0  0  0  0  0  0  0  0  0  0  0
    0.0306  -10.9028   27.2687 C   0  0  0  0  0  0  0  0  0  0  0  0
    0.7606  -10.5053   26.2487 N   0  0  0  0  0  0  0  0  0  0  0  0
    1.1791  -11.6631   25.4685 C   0  0  0  0  0  0  0  0  0  0  0  0
    2.4504  -11.4590   24.0571 C   0  0  0  0  0  0  0  0  0  0  0  0
    3.1357   -9.5450   22.9839 C   0  0  0  0  0  0  0  0  0  0  0  0
    2.3677   -9.2011   21.9914 O   0  0  0  0  0  0  0  0  0  0  0  0
    4.6291   -8.7280   23.3281 N   0  0  0  0  0  0  0  0  0  0  0  0
    4.8281   -7.3910   24.3636 C   0  0  0  0  0  0  0  0  0  0  0  0
    5.6825   -7.2720   22.3192 C   0  0  0  0  0  0  0  0  0  0  0  0
    6.9994   -7.4213   20.5553 C   0  0  0  0  0  0  0  0  0  0  0  0
    9.1190   -7.7800   20.2995 N   0  0  0  0  0  0  0  0  0  0  0  0
    8.5041   -8.9137   18.9466 C   0  0  0  0  0  0  0  0  0  0  0  0
   10.0281   -6.2085   20.2182 C   0  0  0  0  0  0  0  0  0  0  0  0
   10.2428   -5.6473   19.1882 O   0  0  0  0  0  0  0  0  0  0  0  0
   10.7550   -5.5582   21.4070 C   0  0  0  0  0  0  0  0  0  0  0  0
   11.5602   -4.3776   21.6590 C   0  0  0  0  0  0  0  0  0  0  0  0
   12.5496   -4.6801   22.5555 C   0  0  0  0  0  0  0  0  0  0  0  0
   12.4459   -6.0077   22.7327 N   0  0  0  0  0  0  0  0  0  0  0  0
   11.4293   -6.5691   22.0743 N   0  0  0  0  0  0  0  0  0  0  0  0
    2.0115  -13.2227   28.2318 H   0  0  0  0  0  0  0  0  0  0  0  0
    1.2480  -14.5853   27.4719 H   0  0  0  0  0  0  0  0  0  0  0  0
    2.7041  -13.8386   26.7602 H   0  0  0  0  0  0  0  0  0  0  0  0
   -0.6301  -12.7703   27.9078 H   0  0  0  0  0  0  0  0  0  0  0  0
   -0.3589  -10.2953   28.0687 H   0  0  0  0  0  0  0  0  0  0  0  0
    3.1506  -12.3398   24.0503 H   0  0  0  0  0  0  0  0  0  0  0  0
    1.8356  -12.1641   23.3889 H   0  0  0  0  0  0  0  0  0  0  0  0
    4.8106   -7.8782   25.3464 H   0  0  0  0  0  0  0  0  0  0  0  0
    4.1014   -6.6127   24.2858 H   0  0  0  0  0  0  0  0  0  0  0  0
    5.8553   -7.0428   24.5408 H   0  0  0  0  0  0  0  0  0  0  0  0
    5.7452   -6.3201   22.8559 H   0  0  0  0  0  0  0  0  0  0  0  0
    6.5707   -7.3678   22.9738 H   0  0  0  0  0  0  0  0  0  0  0  0
    6.8711   -6.6176   19.7340 H   0  0  0  0  0  0  0  0  0  0  0  0
    6.4874   -7.9196   19.7854 H   0  0  0  0  0  0  0  0  0  0  0  0
    9.4832   -9.3150   19.1859 H   0  0  0  0  0  0  0  0  0  0  0  0
    7.8525   -9.7609   19.2665 H   0  0  0  0  0  0  0  0  0  0  0  0
    8.7853   -9.4920   18.0471 H   0  0  0  0  0  0  0  0  0  0  0  0
   11.5503   -3.4179   21.1996 H   0  0  0  0  0  0  0  0  0  0  0  0
   13.3453   -4.0896   22.9861 H   0  0  0  0  0  0  0  0  0  0  0  0
   13.0509   -6.6111   23.2794 H   0  0  0  0  0  0  0  0  0  0  0  0
  1  2  1  0
  2  3  1  0
  3  4  1  0
  4  5  2  0
  5  6  1  0
  6  7  1  0
  7  8  1  0
  8  9  2  0
  8 10  1  0
 10 11  1  0
 10 12  1  0
 12 13  1  0
 13 14  1  0
 14 15  1  0
 14 16  1  0
 16 17  2  0
 16 18  1  0
 18 19  1  0
 19 20  2  0
 20 21  1  0
 21 22  1  0
  6  2  2  0
 22 18  2  0
  1 23  1  0
  1 24  1  0
  1 25  1  0
  3 26  1  0
  4 27  1  0
  7 28  1  0
  7 29  1  0
 11 30  1  0
 11 31  1  0
 11 32  1  0
 12 33  1  0
 12 34  1  0
 13 35  1  0
 13 36  1  0
 15 37  1  0
 15 38  1  0
 15 39  1  0
 19 40  1  0
 20 41  1  0
 21 42  1  0
M  END
>  <Energy>  (838) 
1164.2322298143235

>  <compound_id>  (838) 
10609

>  <target_id>  (838) 
1

>  <reference_id>  (838) 
116

>  <inspiration_ids>  (838) 
[116, 81]

>  <energy_score>  (838) 
1074.2125843230758

>  <distance_score>  (838) 
6.055198904640147

>  <path>  (838) 
/opt/xchem-fragalysis-2/maxwin/BulkDock/SCRATCH/511021/C10609-P116/C10609-P116.minimised.mol

>  <scratch_subdir>  (838) 
/opt/xchem-fragalysis-2/maxwin/BulkDock/SCRATCH/511021/C10609-P116

>  <fragmenstein_runtime>  (838) 
16.94728922843933

>  <fragmenstein_outcome>  (838) 
too moved

>  <fragmenstein_mode>  (838) 
expansion

>  <fragmenstein_error>  (838) 


$$$$
C10609-P81
     RDKit          3D

 42 43  0  0  0  0  0  0  0  0999 V2000
    4.6047  -14.5329   25.1799 C   0  0  0  0  0  0  0  0  0  0  0  0
    3.4721  -13.7941   24.9884 C   0  0  0  0  0  0  0  0  0  0  0  0
    2.4697  -13.7968   26.2699 N   0  0  0  0  0  0  0  0  0  0  0  0
    1.3826  -13.1955   25.8455 C   0  0  0  0  0  0  0  0  0  0  0  0
    1.7506  -12.6802   24.6894 N   0  0  0  0  0  0  0  0  0  0  0  0
    2.9107  -12.9069   24.1324 C   0  0  0  0  0  0  0  0  0  0  0  0
    3.1149  -11.8934   23.1484 C   0  0  0  0  0  0  0  0  0  0  0  0
    3.9980  -10.1759   23.1052 C   0  0  0  0  0  0  0  0  0  0  0  0
    3.1494   -8.8519   22.9371 O   0  0  0  0  0  0  0  0  0  0  0  0
    5.8652  -10.4931   23.1161 N   0  0  0  0  0  0  0  0  0  0  0  0
    6.2827  -10.8012   21.8431 C   0  0  0  0  0  0  0  0  0  0  0  0
    7.5145   -9.0513   23.0448 C   0  0  0  0  0  0  0  0  0  0  0  0
    7.4477   -7.5673   21.0875 C   0  0  0  0  0  0  0  0  0  0  0  0
    9.5008   -7.5302   19.9925 N   0  0  0  0  0  0  0  0  0  0  0  0
    9.6523   -8.3361   20.9586 C   0  0  0  0  0  0  0  0  0  0  0  0
   10.5196   -5.8521   19.5455 C   0  0  0  0  0  0  0  0  0  0  0  0
   11.2818   -5.5343   20.4125 O   0  0  0  0  0  0  0  0  0  0  0  0
   10.9076   -4.7786   17.9534 C   0  0  0  0  0  0  0  0  0  0  0  0
   11.3760   -4.9238   16.5251 C   0  0  0  0  0  0  0  0  0  0  0  0
   11.8892   -3.7489   16.0269 C   0  0  0  0  0  0  0  0  0  0  0  0
   12.4354   -3.2814   17.1635 N   0  0  0  0  0  0  0  0  0  0  0  0
   12.2550   -4.1532   18.1669 N   0  0  0  0  0  0  0  0  0  0  0  0
    4.7942  -15.1777   24.3300 H   0  0  0  0  0  0  0  0  0  0  0  0
    5.2707  -13.7340   25.4818 H   0  0  0  0  0  0  0  0  0  0  0  0
    4.2967  -15.1083   26.0300 H   0  0  0  0  0  0  0  0  0  0  0  0
    2.7945  -14.1242   27.1550 H   0  0  0  0  0  0  0  0  0  0  0  0
    0.4943  -12.9684   26.3697 H   0  0  0  0  0  0  0  0  0  0  0  0
    3.4621  -12.3276   22.2239 H   0  0  0  0  0  0  0  0  0  0  0  0
    2.0751  -11.7544   22.9394 H   0  0  0  0  0  0  0  0  0  0  0  0
    6.2399  -11.4870   20.9008 H   0  0  0  0  0  0  0  0  0  0  0  0
    5.2237  -10.9573   21.5538 H   0  0  0  0  0  0  0  0  0  0  0  0
    6.8893  -11.5124   22.5065 H   0  0  0  0  0  0  0  0  0  0  0  0
    7.2939   -8.2734   23.9635 H   0  0  0  0  0  0  0  0  0  0  0  0
    8.2980   -9.4971   23.7545 H   0  0  0  0  0  0  0  0  0  0  0  0
    6.7833   -7.6468   20.1788 H   0  0  0  0  0  0  0  0  0  0  0  0
    6.9981   -6.6561   21.6601 H   0  0  0  0  0  0  0  0  0  0  0  0
   10.0928   -8.8475   20.0874 H   0  0  0  0  0  0  0  0  0  0  0  0
   10.2560   -8.5449   21.9577 H   0  0  0  0  0  0  0  0  0  0  0  0
   10.7025   -7.8883   21.0482 H   0  0  0  0  0  0  0  0  0  0  0  0
   11.3985   -5.8652   16.0080 H   0  0  0  0  0  0  0  0  0  0  0  0
   12.2022   -3.4121   15.0502 H   0  0  0  0  0  0  0  0  0  0  0  0
   13.1143   -2.5382   17.2885 H   0  0  0  0  0  0  0  0  0  0  0  0
  1  2  1  0
  2  3  1  0
  3  4  1  0
  4  5  2  0
  5  6  1  0
  6  7  1  0
  7  8  1  0
  8  9  2  0
  8 10  1  0
 10 11  1  0
 10 12  1  0
 12 13  1  0
 13 14  1  0
 14 15  1  0
 14 16  1  0
 16 17  2  0
 16 18  1  0
 18 19  1  0
 19 20  2  0
 20 21  1  0
 21 22  1  0
  6  2  2  0
 22 18  2  0
  1 23  1  0
  1 24  1  0
  1 25  1  0
  3 26  1  0
  4 27  1  0
  7 28  1  0
  7 29  1  0
 11 30  1  0
 11 31  1  0
 11 32  1  0
 12 33  1  0
 12 34  1  0
 13 35  1  0
 13 36  1  0
 15 37  1  0
 15 38  1  0
 15 39  1  0
 19 40  1  0
 20 41  1  0
 21 42  1  0
M  END
>  <Energy>  (839) 
1721.714224505273

>  <compound_id>  (839) 
10609

>  <target_id>  (839) 
1

>  <reference_id>  (839) 
81

>  <inspiration_ids>  (839) 
[116, 81]

>  <energy_score>  (839) 
1631.6945790140744

>  <distance_score>  (839) 
4.603408428347736

>  <path>  (839) 
/opt/xchem-fragalysis-2/maxwin/BulkDock/SCRATCH/511021/C10609-P81/C10609-P81.minimised.mol

>  <scratch_subdir>  (839) 
/opt/xchem-fragalysis-2/maxwin/BulkDock/SCRATCH/511021/C10609-P81

>  <fragmenstein_runtime>  (839) 
13.979897737503052

>  <fragmenstein_outcome>  (839) 
too moved

>  <fragmenstein_mode>  (839) 
expansion

>  <fragmenstein_error>  (839) 


$$$$
C12680-P116
     RDKit          3D

 45 46  0  0  0  0  0  0  0  0999 V2000
    2.4907  -11.8773   30.1931 C   0  0  0  0  0  0  0  0  0  0  0  0
    3.7423  -11.5361   31.0014 C   0  0  0  0  0  0  0  0  0  0  0  0
    4.9547  -11.2251   30.1737 C   0  0  0  0  0  0  0  0  0  0  0  0
    6.0213  -10.5529   30.5637 N   0  0  0  0  0  0  0  0  0  0  0  0
    6.7494  -10.2392   29.4136 C   0  0  0  0  0  0  0  0  0  0  0  0
    7.9849   -9.4027   29.4072 C   0  0  0  0  0  0  0  0  0  0  0  0
    8.3343   -8.8923   30.3824 O   0  0  0  0  0  0  0  0  0  0  0  0
    8.6230   -9.4715   27.9154 N   0  0  0  0  0  0  0  0  0  0  0  0
    9.6823   -8.7668   27.5714 C   0  0  0  0  0  0  0  0  0  0  0  0
   10.3048   -8.9096   27.0686 C   0  0  0  0  0  0  0  0  0  0  0  0
   11.7806   -9.5523   27.7255 C   0  0  0  0  0  0  0  0  0  0  0  0
   10.5756   -7.5714   25.9115 C   0  0  0  0  0  0  0  0  0  0  0  0
   11.9423   -7.6814   25.2266 C   0  0  0  0  0  0  0  0  0  0  0  0
   12.2109   -6.6095   24.2919 N   0  0  0  0  0  0  0  0  0  0  0  0
   12.3850   -6.6243   22.8651 C   0  0  0  0  0  0  0  0  0  0  0  0
   12.2741   -7.5144   22.0766 O   0  0  0  0  0  0  0  0  0  0  0  0
   12.7412   -5.2881   22.3333 C   0  0  0  0  0  0  0  0  0  0  0  0
   13.2428   -4.9719   21.0346 C   0  0  0  0  0  0  0  0  0  0  0  0
   13.4959   -3.6685   20.8657 N   0  0  0  0  0  0  0  0  0  0  0  0
   13.0995   -3.1271   22.0233 N   0  0  0  0  0  0  0  0  0  0  0  0
   12.6442   -4.0435   22.9282 C   0  0  0  0  0  0  0  0  0  0  0  0
    6.1396  -10.8566   28.3405 C   0  0  0  0  0  0  0  0  0  0  0  0
    5.1156  -11.5910   28.8673 N   0  0  0  0  0  0  0  0  0  0  0  0
    2.5331  -12.8785   29.7579 H   0  0  0  0  0  0  0  0  0  0  0  0
    1.6043  -11.8468   30.8321 H   0  0  0  0  0  0  0  0  0  0  0  0
    2.3331  -11.1850   29.3618 H   0  0  0  0  0  0  0  0  0  0  0  0
    3.5282  -10.6732   31.6386 H   0  0  0  0  0  0  0  0  0  0  0  0
    3.9755  -12.3522   31.6916 H   0  0  0  0  0  0  0  0  0  0  0  0
   10.0194   -8.8854   28.7883 H   0  0  0  0  0  0  0  0  0  0  0  0
    8.7559   -8.0517   27.1030 H   0  0  0  0  0  0  0  0  0  0  0  0
    9.6808   -7.6294   28.1708 H   0  0  0  0  0  0  0  0  0  0  0  0
   10.2814   -9.7527   26.1822 H   0  0  0  0  0  0  0  0  0  0  0  0
   11.5616  -10.4872   28.2533 H   0  0  0  0  0  0  0  0  0  0  0  0
   12.4766   -9.7575   26.9080 H   0  0  0  0  0  0  0  0  0  0  0  0
   12.2202   -8.8183   28.4091 H   0  0  0  0  0  0  0  0  0  0  0  0
   10.5048   -6.6172   26.4507 H   0  0  0  0  0  0  0  0  0  0  0  0
    9.7674   -7.6082   25.1703 H   0  0  0  0  0  0  0  0  0  0  0  0
   12.0188   -8.6304   24.6866 H   0  0  0  0  0  0  0  0  0  0  0  0
   12.7418   -7.6370   25.9715 H   0  0  0  0  0  0  0  0  0  0  0  0
   12.3060   -5.6600   24.6256 H   0  0  0  0  0  0  0  0  0  0  0  0
   13.4515   -5.6488   20.2158 H   0  0  0  0  0  0  0  0  0  0  0  0
   13.1208   -2.1159   22.1306 H   0  0  0  0  0  0  0  0  0  0  0  0
   12.2788   -3.7018   23.8852 H   0  0  0  0  0  0  0  0  0  0  0  0
    6.3925  -10.8882   27.2904 H   0  0  0  0  0  0  0  0  0  0  0  0
    4.5057  -12.2066   28.3465 H   0  0  0  0  0  0  0  0  0  0  0  0
  1  2  1  0
  2  3  1  0
  3  4  2  0
  4  5  1  0
  5  6  1  0
  6  7  2  0
  6  8  1  0
  8  9  1  0
  8 10  1  0
 10 11  1  0
 10 12  1  0
 12 13  1  0
 13 14  1  0
 14 15  1  0
 15 16  2  0
 15 17  1  0
 17 18  1  0
 18 19  2  0
 19 20  1  0
 20 21  1  0
  5 22  2  0
 22 23  1  0
 23  3  1  0
 21 17  2  0
  1 24  1  0
  1 25  1  0
  1 26  1  0
  2 27  1  0
  2 28  1  0
  9 29  1  0
  9 30  1  0
  9 31  1  0
 10 32  1  0
 11 33  1  0
 11 34  1  0
 11 35  1  0
 12 36  1  0
 12 37  1  0
 13 38  1  0
 13 39  1  0
 14 40  1  0
 18 41  1  0
 20 42  1  0
 21 43  1  0
 22 44  1  0
 23 45  1  0
M  END
>  <Energy>  (840) 
788.29596609776729

>  <compound_id>  (840) 
12680

>  <target_id>  (840) 
1

>  <reference_id>  (840) 
116

>  <inspiration_ids>  (840) 
[116, 81]

>  <energy_score>  (840) 
733.8309298666547

>  <distance_score>  (840) 
7.6881683120191555

>  <path>  (840) 
/opt/xchem-fragalysis-2/maxwin/BulkDock/SCRATCH/511021/C12680-P116/C12680-P116.minimised.mol

>  <scratch_subdir>  (840) 
/opt/xchem-fragalysis-2/maxwin/BulkDock/SCRATCH/511021/C12680-P116

>  <fragmenstein_runtime>  (840) 
35.83598732948303

>  <fragmenstein_outcome>  (840) 
too moved

>  <fragmenstein_mode>  (840) 
expansion

>  <fragmenstein_error>  (840) 


$$$$
C12680-P81
     RDKit          3D

 45 46  0  0  0  0  0  0  0  0999 V2000
   -0.7202  -14.4937   27.6104 C   0  0  0  0  0  0  0  0  0  0  0  0
    0.5581  -12.8474   26.8581 C   0  0  0  0  0  0  0  0  0  0  0  0
    1.4408  -11.1045   27.6759 C   0  0  0  0  0  0  0  0  0  0  0  0
    2.5738  -10.1670   27.4023 N   0  0  0  0  0  0  0  0  0  0  0  0
    4.3349  -10.0279   27.9123 C   0  0  0  0  0  0  0  0  0  0  0  0
    5.9163   -9.4044   27.2002 C   0  0  0  0  0  0  0  0  0  0  0  0
    6.7889   -9.5663   27.9326 O   0  0  0  0  0  0  0  0  0  0  0  0
    5.8476   -8.7916   25.5180 N   0  0  0  0  0  0  0  0  0  0  0  0
    6.9975   -8.5457   24.8271 C   0  0  0  0  0  0  0  0  0  0  0  0
    7.1135   -7.9601   24.1572 C   0  0  0  0  0  0  0  0  0  0  0  0
    5.6066   -7.0789   23.8757 C   0  0  0  0  0  0  0  0  0  0  0  0
    6.8539   -7.0080   22.2908 C   0  0  0  0  0  0  0  0  0  0  0  0
    7.3062   -7.4246   20.2316 C   0  0  0  0  0  0  0  0  0  0  0  0
    9.3075   -8.0223   20.4291 N   0  0  0  0  0  0  0  0  0  0  0  0
   10.6438   -7.1574   20.6627 C   0  0  0  0  0  0  0  0  0  0  0  0
   10.7861   -5.9341   20.6482 O   0  0  0  0  0  0  0  0  0  0  0  0
   11.9555   -7.8221   21.1105 C   0  0  0  0  0  0  0  0  0  0  0  0
   13.1532   -6.9903   21.2615 C   0  0  0  0  0  0  0  0  0  0  0  0
   14.1720   -7.6216   21.8326 N   0  0  0  0  0  0  0  0  0  0  0  0
   13.6218   -8.7656   22.2404 N   0  0  0  0  0  0  0  0  0  0  0  0
   12.2804   -8.8695   21.9575 C   0  0  0  0  0  0  0  0  0  0  0  0
    3.9095  -10.5584   29.0499 C   0  0  0  0  0  0  0  0  0  0  0  0
    2.3260  -10.9751   29.0942 N   0  0  0  0  0  0  0  0  0  0  0  0
   -1.5528  -14.9766   26.9883 H   0  0  0  0  0  0  0  0  0  0  0  0
   -0.2943  -15.2449   28.3845 H   0  0  0  0  0  0  0  0  0  0  0  0
   -1.6120  -14.4568   28.3187 H   0  0  0  0  0  0  0  0  0  0  0  0
    1.4101  -13.3886   26.4115 H   0  0  0  0  0  0  0  0  0  0  0  0
    0.1928  -12.3123   26.0726 H   0  0  0  0  0  0  0  0  0  0  0  0
    8.0529   -9.1900   25.1100 H   0  0  0  0  0  0  0  0  0  0  0  0
    6.9069   -9.7407   24.5743 H   0  0  0  0  0  0  0  0  0  0  0  0
    7.4242   -8.2479   25.9366 H   0  0  0  0  0  0  0  0  0  0  0  0
    8.2245   -7.3567   24.4375 H   0  0  0  0  0  0  0  0  0  0  0  0
    5.7409   -6.0422   23.9646 H   0  0  0  0  0  0  0  0  0  0  0  0
    4.8134   -7.6174   24.3352 H   0  0  0  0  0  0  0  0  0  0  0  0
    5.0764   -7.2760   22.9748 H   0  0  0  0  0  0  0  0  0  0  0  0
    7.5515   -6.3694   22.9354 H   0  0  0  0  0  0  0  0  0  0  0  0
    6.9687   -5.9557   22.1581 H   0  0  0  0  0  0  0  0  0  0  0  0
    7.1825   -6.5983   19.4480 H   0  0  0  0  0  0  0  0  0  0  0  0
    6.4934   -7.9035   19.8384 H   0  0  0  0  0  0  0  0  0  0  0  0
    9.5277   -8.9256   20.4207 H   0  0  0  0  0  0  0  0  0  0  0  0
   13.2804   -5.9635   20.9289 H   0  0  0  0  0  0  0  0  0  0  0  0
   14.1936   -9.3968   22.7935 H   0  0  0  0  0  0  0  0  0  0  0  0
   11.7297   -9.6473   22.4607 H   0  0  0  0  0  0  0  0  0  0  0  0
    4.5785  -10.6869   29.8782 H   0  0  0  0  0  0  0  0  0  0  0  0
    1.9975  -11.4313   29.9200 H   0  0  0  0  0  0  0  0  0  0  0  0
  1  2  1  0
  2  3  1  0
  3  4  2  0
  4  5  1  0
  5  6  1  0
  6  7  2  0
  6  8  1  0
  8  9  1  0
  8 10  1  0
 10 11  1  0
 10 12  1  0
 12 13  1  0
 13 14  1  0
 14 15  1  0
 15 16  2  0
 15 17  1  0
 17 18  1  0
 18 19  2  0
 19 20  1  0
 20 21  1  0
  5 22  2  0
 22 23  1  0
 23  3  1  0
 21 17  2  0
  1 24  1  0
  1 25  1  0
  1 26  1  0
  2 27  1  0
  2 28  1  0
  9 29  1  0
  9 30  1  0
  9 31  1  0
 10 32  1  0
 11 33  1  0
 11 34  1  0
 11 35  1  0
 12 36  1  0
 12 37  1  0
 13 38  1  0
 13 39  1  0
 14 40  1  0
 18 41  1  0
 20 42  1  0
 21 43  1  0
 22 44  1  0
 23 45  1  0
M  END
>  <Energy>  (841) 
1825.1197366393542

>  <compound_id>  (841) 
12680

>  <target_id>  (841) 
1

>  <reference_id>  (841) 
81

>  <inspiration_ids>  (841) 
[116, 81]

>  <energy_score>  (841) 
1770.6547004082868

>  <distance_score>  (841) 
7.690086729922866

>  <path>  (841) 
/opt/xchem-fragalysis-2/maxwin/BulkDock/SCRATCH/511021/C12680-P81/C12680-P81.minimised.mol

>  <scratch_subdir>  (841) 
/opt/xchem-fragalysis-2/maxwin/BulkDock/SCRATCH/511021/C12680-P81

>  <fragmenstein_runtime>  (841) 
24.399978160858154

>  <fragmenstein_outcome>  (841) 
too moved

>  <fragmenstein_mode>  (841) 
expansion

>  <fragmenstein_error>  (841) 


$$$$
C12681-P116
     RDKit          3D

 42 43  0  0  0  0  0  0  0  0999 V2000
    4.0713  -13.8524   25.3863 C   0  0  0  0  0  0  0  0  0  0  0  0
    3.1093  -13.0611   24.4415 C   0  0  0  0  0  0  0  0  0  0  0  0
    1.7819  -12.8045   24.9526 N   0  0  0  0  0  0  0  0  0  0  0  0
    1.0537  -12.5851   23.8890 C   0  0  0  0  0  0  0  0  0  0  0  0
    1.8676  -12.4070   22.8732 N   0  0  0  0  0  0  0  0  0  0  0  0
    3.2006  -12.3007   23.2399 C   0  0  0  0  0  0  0  0  0  0  0  0
    4.3389  -10.9843   22.4564 C   0  0  0  0  0  0  0  0  0  0  0  0
    4.9926  -11.2797   21.4797 O   0  0  0  0  0  0  0  0  0  0  0  0
    4.2445   -9.2211   23.1695 N   0  0  0  0  0  0  0  0  0  0  0  0
    3.0497   -8.4632   22.5376 C   0  0  0  0  0  0  0  0  0  0  0  0
    5.2358   -7.5498   22.6453 C   0  0  0  0  0  0  0  0  0  0  0  0
    6.0596   -7.1710   24.0570 C   0  0  0  0  0  0  0  0  0  0  0  0
    6.5532   -7.1840   21.0386 C   0  0  0  0  0  0  0  0  0  0  0  0
    7.3502   -6.4178   19.2241 C   0  0  0  0  0  0  0  0  0  0  0  0
    9.4244   -6.0937   19.5630 N   0  0  0  0  0  0  0  0  0  0  0  0
   10.7551   -5.3404   18.5713 C   0  0  0  0  0  0  0  0  0  0  0  0
   10.7625   -4.9115   17.4165 O   0  0  0  0  0  0  0  0  0  0  0  0
   12.1837   -5.0828   19.3973 C   0  0  0  0  0  0  0  0  0  0  0  0
   13.2963   -4.4055   18.8263 C   0  0  0  0  0  0  0  0  0  0  0  0
   14.2385   -4.1346   19.7315 N   0  0  0  0  0  0  0  0  0  0  0  0
   13.7553   -4.6899   20.8564 N   0  0  0  0  0  0  0  0  0  0  0  0
   12.5276   -5.2779   20.7174 C   0  0  0  0  0  0  0  0  0  0  0  0
    4.9881  -13.3150   25.6354 H   0  0  0  0  0  0  0  0  0  0  0  0
    3.5429  -14.0001   26.3182 H   0  0  0  0  0  0  0  0  0  0  0  0
    4.3250  -14.8334   24.9881 H   0  0  0  0  0  0  0  0  0  0  0  0
    1.4785  -13.0330   25.8893 H   0  0  0  0  0  0  0  0  0  0  0  0
   -0.0032  -12.7061   23.7972 H   0  0  0  0  0  0  0  0  0  0  0  0
    1.9533   -8.6043   22.1668 H   0  0  0  0  0  0  0  0  0  0  0  0
    2.5126   -7.8725   23.3169 H   0  0  0  0  0  0  0  0  0  0  0  0
    2.5211   -9.2867   21.9956 H   0  0  0  0  0  0  0  0  0  0  0  0
    4.6002   -6.8066   23.0151 H   0  0  0  0  0  0  0  0  0  0  0  0
    6.9895   -7.7115   24.2267 H   0  0  0  0  0  0  0  0  0  0  0  0
    5.4189   -7.4104   24.9121 H   0  0  0  0  0  0  0  0  0  0  0  0
    6.2445   -6.0954   24.0913 H   0  0  0  0  0  0  0  0  0  0  0  0
    6.6037   -6.2225   21.5187 H   0  0  0  0  0  0  0  0  0  0  0  0
    6.1844   -7.7509   20.2147 H   0  0  0  0  0  0  0  0  0  0  0  0
    6.9259   -6.7737   18.2933 H   0  0  0  0  0  0  0  0  0  0  0  0
    6.8245   -5.4105   19.2912 H   0  0  0  0  0  0  0  0  0  0  0  0
    9.7422   -6.2528   20.4901 H   0  0  0  0  0  0  0  0  0  0  0  0
   13.4166   -4.0761   17.8022 H   0  0  0  0  0  0  0  0  0  0  0  0
   14.3158   -4.6129   21.6978 H   0  0  0  0  0  0  0  0  0  0  0  0
   12.0089   -5.7079   21.5576 H   0  0  0  0  0  0  0  0  0  0  0  0
  1  2  1  0
  2  3  1  0
  3  4  1  0
  4  5  2  0
  5  6  1  0
  6  7  1  0
  7  8  2  0
  7  9  1  0
  9 10  1  0
  9 11  1  0
 11 12  1  0
 11 13  1  0
 13 14  1  0
 14 15  1  0
 15 16  1  0
 16 17  2  0
 16 18  1  0
 18 19  1  0
 19 20  2  0
 20 21  1  0
 21 22  1  0
  6  2  2  0
 22 18  2  0
  1 23  1  0
  1 24  1  0
  1 25  1  0
  3 26  1  0
  4 27  1  0
 10 28  1  0
 10 29  1  0
 10 30  1  0
 11 31  1  0
 12 32  1  0
 12 33  1  0
 12 34  1  0
 13 35  1  0
 13 36  1  0
 14 37  1  0
 14 38  1  0
 15 39  1  0
 19 40  1  0
 21 41  1  0
 22 42  1  0
M  END
>  <Energy>  (842) 
879.17542567143607

>  <compound_id>  (842) 
12681

>  <target_id>  (842) 
1

>  <reference_id>  (842) 
116

>  <inspiration_ids>  (842) 
[116, 81]

>  <energy_score>  (842) 
823.1124191983574

>  <distance_score>  (842) 
5.843278468073543

>  <path>  (842) 
/opt/xchem-fragalysis-2/maxwin/BulkDock/SCRATCH/511021/C12681-P116/C12681-P116.minimised.mol

>  <scratch_subdir>  (842) 
/opt/xchem-fragalysis-2/maxwin/BulkDock/SCRATCH/511021/C12681-P116

>  <fragmenstein_runtime>  (842) 
18.37094807624817

>  <fragmenstein_outcome>  (842) 
too moved

>  <fragmenstein_mode>  (842) 
expansion

>  <fragmenstein_error>  (842) 


$$$$
C12681-P81
     RDKit          3D

 42 43  0  0  0  0  0  0  0  0999 V2000
    7.3906   -8.1448   27.8963 C   0  0  0  0  0  0  0  0  0  0  0  0
    7.1047   -9.1189   26.8200 C   0  0  0  0  0  0  0  0  0  0  0  0
    6.9209  -10.4412   27.1813 N   0  0  0  0  0  0  0  0  0  0  0  0
    7.0574  -11.2033   26.0653 C   0  0  0  0  0  0  0  0  0  0  0  0
    7.1250  -10.4508   24.9948 N   0  0  0  0  0  0  0  0  0  0  0  0
    7.1626   -9.1028   25.4155 C   0  0  0  0  0  0  0  0  0  0  0  0
    7.8404   -8.0987   24.4928 C   0  0  0  0  0  0  0  0  0  0  0  0
    9.0323   -8.3524   24.4033 O   0  0  0  0  0  0  0  0  0  0  0  0
    7.0032   -6.7949   23.8066 N   0  0  0  0  0  0  0  0  0  0  0  0
    6.4728   -6.9512   22.6021 C   0  0  0  0  0  0  0  0  0  0  0  0
    7.6240   -5.3233   22.8601 C   0  0  0  0  0  0  0  0  0  0  0  0
    7.0177   -4.1315   23.5312 C   0  0  0  0  0  0  0  0  0  0  0  0
    8.2257   -4.7428   20.9613 C   0  0  0  0  0  0  0  0  0  0  0  0
   10.1285   -5.4841   20.2569 C   0  0  0  0  0  0  0  0  0  0  0  0
   11.8538   -5.2010   19.6838 N   0  0  0  0  0  0  0  0  0  0  0  0
   12.8926   -5.1521   20.0204 C   0  0  0  0  0  0  0  0  0  0  0  0
   12.7818   -5.5987   21.5612 O   0  0  0  0  0  0  0  0  0  0  0  0
   14.0170   -4.6881   19.2781 C   0  0  0  0  0  0  0  0  0  0  0  0
   15.3216   -4.3860   19.6975 C   0  0  0  0  0  0  0  0  0  0  0  0
   16.0853   -3.9039   18.7094 N   0  0  0  0  0  0  0  0  0  0  0  0
   15.2669   -3.8948   17.6470 N   0  0  0  0  0  0  0  0  0  0  0  0
   14.0119   -4.3290   17.9386 C   0  0  0  0  0  0  0  0  0  0  0  0
    6.5307   -8.0246   28.5591 H   0  0  0  0  0  0  0  0  0  0  0  0
    8.2310   -8.4935   28.5075 H   0  0  0  0  0  0  0  0  0  0  0  0
    7.6737   -7.1674   27.5035 H   0  0  0  0  0  0  0  0  0  0  0  0
    6.9110  -10.8016   28.1258 H   0  0  0  0  0  0  0  0  0  0  0  0
    7.0890  -12.2826   26.0937 H   0  0  0  0  0  0  0  0  0  0  0  0
    6.7860   -6.3240   21.8316 H   0  0  0  0  0  0  0  0  0  0  0  0
    6.6610   -7.3697   21.6535 H   0  0  0  0  0  0  0  0  0  0  0  0
    5.4372   -7.0201   22.9116 H   0  0  0  0  0  0  0  0  0  0  0  0
    8.3656   -5.4339   23.5438 H   0  0  0  0  0  0  0  0  0  0  0  0
    6.2727   -4.6726   23.9908 H   0  0  0  0  0  0  0  0  0  0  0  0
    7.3247   -3.6288   24.4381 H   0  0  0  0  0  0  0  0  0  0  0  0
    6.6288   -3.4103   22.8730 H   0  0  0  0  0  0  0  0  0  0  0  0
    8.1211   -3.7040   21.2215 H   0  0  0  0  0  0  0  0  0  0  0  0
    7.4262   -4.9097   20.2014 H   0  0  0  0  0  0  0  0  0  0  0  0
   10.2774   -6.5293   20.4745 H   0  0  0  0  0  0  0  0  0  0  0  0
   10.8365   -5.0513   20.9762 H   0  0  0  0  0  0  0  0  0  0  0  0
   11.1093   -5.0629   19.0421 H   0  0  0  0  0  0  0  0  0  0  0  0
   15.7430   -4.4855   20.6907 H   0  0  0  0  0  0  0  0  0  0  0  0
   15.6363   -3.5855   16.7535 H   0  0  0  0  0  0  0  0  0  0  0  0
   13.2402   -4.3688   17.1834 H   0  0  0  0  0  0  0  0  0  0  0  0
  1  2  1  0
  2  3  1  0
  3  4  1  0
  4  5  2  0
  5  6  1  0
  6  7  1  0
  7  8  2  0
  7  9  1  0
  9 10  1  0
  9 11  1  0
 11 12  1  0
 11 13  1  0
 13 14  1  0
 14 15  1  0
 15 16  1  0
 16 17  2  0
 16 18  1  0
 18 19  1  0
 19 20  2  0
 20 21  1  0
 21 22  1  0
  6  2  2  0
 22 18  2  0
  1 23  1  0
  1 24  1  0
  1 25  1  0
  3 26  1  0
  4 27  1  0
 10 28  1  0
 10 29  1  0
 10 30  1  0
 11 31  1  0
 12 32  1  0
 12 33  1  0
 12 34  1  0
 13 35  1  0
 13 36  1  0
 14 37  1  0
 14 38  1  0
 15 39  1  0
 19 40  1  0
 21 41  1  0
 22 42  1  0
M  END
>  <Energy>  (843) 
807.42316232454789

>  <compound_id>  (843) 
12681

>  <target_id>  (843) 
1

>  <reference_id>  (843) 
81

>  <inspiration_ids>  (843) 
[116, 81]

>  <energy_score>  (843) 
751.3601558514601

>  <distance_score>  (843) 
7.440190369514184

>  <path>  (843) 
/opt/xchem-fragalysis-2/maxwin/BulkDock/SCRATCH/511021/C12681-P81/C12681-P81.minimised.mol

>  <scratch_subdir>  (843) 
/opt/xchem-fragalysis-2/maxwin/BulkDock/SCRATCH/511021/C12681-P81

>  <fragmenstein_runtime>  (843) 
30.659254550933838

>  <fragmenstein_outcome>  (843) 
too moved

>  <fragmenstein_mode>  (843) 
expansion

>  <fragmenstein_error>  (843) 


$$$$
C10611-P116
     RDKit          3D

 45 46  0  0  0  0  0  0  0  0999 V2000
    5.6839   -6.7498   18.3807 C   0  0  0  0  0  0  0  0  0  0  0  0
    6.7463   -6.9487   19.9983 C   0  0  0  0  0  0  0  0  0  0  0  0
    6.0644   -6.6394   22.0328 C   0  0  0  0  0  0  0  0  0  0  0  0
    5.1381   -7.8462   22.8939 N   0  0  0  0  0  0  0  0  0  0  0  0
    5.0948   -6.7516   23.9569 C   0  0  0  0  0  0  0  0  0  0  0  0
    3.5469   -8.5165   22.6310 C   0  0  0  0  0  0  0  0  0  0  0  0
    2.7123   -8.2489   21.9099 O   0  0  0  0  0  0  0  0  0  0  0  0
    3.2230   -9.5914   23.2152 C   0  0  0  0  0  0  0  0  0  0  0  0
    2.1250   -7.7067   23.7656 C   0  0  0  0  0  0  0  0  0  0  0  0
    2.4892  -11.6037   23.9409 C   0  0  0  0  0  0  0  0  0  0  0  0
    1.2950  -11.9703   25.2311 N   0  0  0  0  0  0  0  0  0  0  0  0
    0.6730  -11.1796   26.2760 C   0  0  0  0  0  0  0  0  0  0  0  0
    0.2247  -11.9914   27.2941 C   0  0  0  0  0  0  0  0  0  0  0  0
    0.7658  -13.2045   27.1670 N   0  0  0  0  0  0  0  0  0  0  0  0
    1.4751  -13.1061   26.0696 C   0  0  0  0  0  0  0  0  0  0  0  0
    7.8414   -6.2492   19.0567 N   0  0  0  0  0  0  0  0  0  0  0  0
    9.7310   -5.7777   19.4169 C   0  0  0  0  0  0  0  0  0  0  0  0
   10.2398   -5.9226   20.5264 O   0  0  0  0  0  0  0  0  0  0  0  0
   11.0537   -5.0464   18.1951 C   0  0  0  0  0  0  0  0  0  0  0  0
   11.3587   -4.4583   16.8548 C   0  0  0  0  0  0  0  0  0  0  0  0
   12.6795   -4.0839   16.7866 C   0  0  0  0  0  0  0  0  0  0  0  0
   13.1968   -4.4131   17.9795 N   0  0  0  0  0  0  0  0  0  0  0  0
   12.3087   -4.8569   18.8603 N   0  0  0  0  0  0  0  0  0  0  0  0
    6.1997   -6.6979   17.4279 H   0  0  0  0  0  0  0  0  0  0  0  0
    4.9593   -7.5309   18.3710 H   0  0  0  0  0  0  0  0  0  0  0  0
    5.2100   -5.7550   18.3865 H   0  0  0  0  0  0  0  0  0  0  0  0
    6.6234   -5.7439   20.0242 H   0  0  0  0  0  0  0  0  0  0  0  0
    6.5332   -5.7568   22.5441 H   0  0  0  0  0  0  0  0  0  0  0  0
    6.7784   -7.1172   22.6379 H   0  0  0  0  0  0  0  0  0  0  0  0
    5.1003   -7.4337   24.8259 H   0  0  0  0  0  0  0  0  0  0  0  0
    6.0570   -6.2948   24.2395 H   0  0  0  0  0  0  0  0  0  0  0  0
    4.3281   -6.0999   24.3114 H   0  0  0  0  0  0  0  0  0  0  0  0
    2.5498   -9.8403   21.9643 H   0  0  0  0  0  0  0  0  0  0  0  0
    1.0835   -7.2460   23.4607 H   0  0  0  0  0  0  0  0  0  0  0  0
    1.8240   -7.3810   24.7769 H   0  0  0  0  0  0  0  0  0  0  0  0
    2.8198   -6.9155   24.0639 H   0  0  0  0  0  0  0  0  0  0  0  0
    3.2166  -12.4256   24.0731 H   0  0  0  0  0  0  0  0  0  0  0  0
    1.9379  -12.2180   23.1868 H   0  0  0  0  0  0  0  0  0  0  0  0
    0.3162  -10.1822   26.0993 H   0  0  0  0  0  0  0  0  0  0  0  0
   -0.4328  -11.7314   28.1119 H   0  0  0  0  0  0  0  0  0  0  0  0
    2.3782  -13.6523   25.9369 H   0  0  0  0  0  0  0  0  0  0  0  0
    7.5875   -5.9688   18.0787 H   0  0  0  0  0  0  0  0  0  0  0  0
   10.7574   -4.2272   15.9963 H   0  0  0  0  0  0  0  0  0  0  0  0
   13.2713   -3.6478   15.9957 H   0  0  0  0  0  0  0  0  0  0  0  0
   14.1625   -4.3621   18.2821 H   0  0  0  0  0  0  0  0  0  0  0  0
  1  2  1  0
  2  3  1  0
  3  4  1  0
  4  5  1  0
  4  6  1  0
  6  7  2  0
  6  8  1  0
  8  9  1  0
  8 10  1  0
 10 11  1  0
 11 12  1  0
 12 13  2  0
 13 14  1  0
 14 15  2  0
  2 16  1  0
 16 17  1  0
 17 18  2  0
 17 19  1  0
 19 20  1  0
 20 21  2  0
 21 22  1  0
 22 23  1  0
 15 11  1  0
 23 19  2  0
  1 24  1  0
  1 25  1  0
  1 26  1  0
  2 27  1  0
  3 28  1  0
  3 29  1  0
  5 30  1  0
  5 31  1  0
  5 32  1  0
  8 33  1  0
  9 34  1  0
  9 35  1  0
  9 36  1  0
 10 37  1  0
 10 38  1  0
 12 39  1  0
 13 40  1  0
 15 41  1  0
 16 42  1  0
 20 43  1  0
 21 44  1  0
 22 45  1  0
M  END
>  <Energy>  (844) 
1291.2199025003799

>  <compound_id>  (844) 
10611

>  <target_id>  (844) 
1

>  <reference_id>  (844) 
116

>  <inspiration_ids>  (844) 
[116, 81]

>  <energy_score>  (844) 
1238.1269206638644

>  <distance_score>  (844) 
3.781593776102011

>  <path>  (844) 
/opt/xchem-fragalysis-2/maxwin/BulkDock/SCRATCH/511021/C10611-P116/C10611-P116.minimised.mol

>  <scratch_subdir>  (844) 
/opt/xchem-fragalysis-2/maxwin/BulkDock/SCRATCH/511021/C10611-P116

>  <fragmenstein_runtime>  (844) 
14.85970687866211

>  <fragmenstein_outcome>  (844) 
too moved

>  <fragmenstein_mode>  (844) 
expansion

>  <fragmenstein_error>  (844) 


$$$$
C10611-P81
     RDKit          3D

 45 46  0  0  0  0  0  0  0  0999 V2000
    7.0632  -10.6868   18.5360 C   0  0  0  0  0  0  0  0  0  0  0  0
    7.7783  -10.2448   19.6955 C   0  0  0  0  0  0  0  0  0  0  0  0
    6.3601  -11.2198   20.7331 C   0  0  0  0  0  0  0  0  0  0  0  0
    5.2115  -10.8105   21.7724 N   0  0  0  0  0  0  0  0  0  0  0  0
    6.5458  -11.1793   23.0168 C   0  0  0  0  0  0  0  0  0  0  0  0
    4.0431  -11.4592   22.1064 C   0  0  0  0  0  0  0  0  0  0  0  0
    3.6300  -12.5264   21.7878 O   0  0  0  0  0  0  0  0  0  0  0  0
    3.1965  -10.8860   23.0393 C   0  0  0  0  0  0  0  0  0  0  0  0
    2.7680   -8.7638   22.8673 C   0  0  0  0  0  0  0  0  0  0  0  0
    3.1966  -12.6789   24.0661 C   0  0  0  0  0  0  0  0  0  0  0  0
    4.3912  -13.6030   25.2002 N   0  0  0  0  0  0  0  0  0  0  0  0
    5.6311  -13.0039   25.8993 C   0  0  0  0  0  0  0  0  0  0  0  0
    6.0951  -13.9180   26.8249 C   0  0  0  0  0  0  0  0  0  0  0  0
    5.2674  -14.9687   26.8591 N   0  0  0  0  0  0  0  0  0  0  0  0
    4.1998  -14.4771   26.2843 C   0  0  0  0  0  0  0  0  0  0  0  0
    9.3558   -8.8238   19.8379 N   0  0  0  0  0  0  0  0  0  0  0  0
   10.5039   -8.3578   21.2630 C   0  0  0  0  0  0  0  0  0  0  0  0
   10.4121   -8.8043   22.4312 O   0  0  0  0  0  0  0  0  0  0  0  0
   11.8719   -7.4212   21.1353 C   0  0  0  0  0  0  0  0  0  0  0  0
   12.2918   -6.0721   20.7186 C   0  0  0  0  0  0  0  0  0  0  0  0
   13.5831   -5.8734   21.1276 C   0  0  0  0  0  0  0  0  0  0  0  0
   13.9174   -7.0187   21.7631 N   0  0  0  0  0  0  0  0  0  0  0  0
   12.9505   -7.9498   21.7723 N   0  0  0  0  0  0  0  0  0  0  0  0
    7.7304  -10.5130   17.6787 H   0  0  0  0  0  0  0  0  0  0  0  0
    6.0209  -10.3960   18.5718 H   0  0  0  0  0  0  0  0  0  0  0  0
    6.6105  -11.6712   18.6218 H   0  0  0  0  0  0  0  0  0  0  0  0
    8.2655  -11.2442   19.5713 H   0  0  0  0  0  0  0  0  0  0  0  0
    5.6431  -11.5788   20.0031 H   0  0  0  0  0  0  0  0  0  0  0  0
    6.6953  -12.2887   20.8087 H   0  0  0  0  0  0  0  0  0  0  0  0
    6.0045  -11.3561   23.9209 H   0  0  0  0  0  0  0  0  0  0  0  0
    7.0671  -10.3351   23.4622 H   0  0  0  0  0  0  0  0  0  0  0  0
    7.3298  -11.8818   22.8972 H   0  0  0  0  0  0  0  0  0  0  0  0
    2.2173  -11.5262   22.9797 H   0  0  0  0  0  0  0  0  0  0  0  0
    2.1430   -8.1473   23.5804 H   0  0  0  0  0  0  0  0  0  0  0  0
    2.0612   -8.6575   22.0041 H   0  0  0  0  0  0  0  0  0  0  0  0
    3.7434   -8.1827   22.8569 H   0  0  0  0  0  0  0  0  0  0  0  0
    3.1308  -13.5567   23.4161 H   0  0  0  0  0  0  0  0  0  0  0  0
    2.2326  -12.7858   24.5791 H   0  0  0  0  0  0  0  0  0  0  0  0
    6.0545  -12.0677   25.6001 H   0  0  0  0  0  0  0  0  0  0  0  0
    7.0055  -13.8758   27.4082 H   0  0  0  0  0  0  0  0  0  0  0  0
    3.3236  -14.3549   26.8901 H   0  0  0  0  0  0  0  0  0  0  0  0
    9.6585   -8.4355   19.0684 H   0  0  0  0  0  0  0  0  0  0  0  0
   11.6952   -5.3192   20.2518 H   0  0  0  0  0  0  0  0  0  0  0  0
   14.2504   -5.0253   21.0623 H   0  0  0  0  0  0  0  0  0  0  0  0
   14.7919   -7.2394   22.2300 H   0  0  0  0  0  0  0  0  0  0  0  0
  1  2  1  0
  2  3  1  0
  3  4  1  0
  4  5  1  0
  4  6  1  0
  6  7  2  0
  6  8  1  0
  8  9  1  0
  8 10  1  0
 10 11  1  0
 11 12  1  0
 12 13  2  0
 13 14  1  0
 14 15  2  0
  2 16  1  0
 16 17  1  0
 17 18  2  0
 17 19  1  0
 19 20  1  0
 20 21  2  0
 21 22  1  0
 22 23  1  0
 15 11  1  0
 23 19  2  0
  1 24  1  0
  1 25  1  0
  1 26  1  0
  2 27  1  0
  3 28  1  0
  3 29  1  0
  5 30  1  0
  5 31  1  0
  5 32  1  0
  8 33  1  0
  9 34  1  0
  9 35  1  0
  9 36  1  0
 10 37  1  0
 10 38  1  0
 12 39  1  0
 13 40  1  0
 15 41  1  0
 16 42  1  0
 20 43  1  0
 21 44  1  0
 22 45  1  0
M  END
>  <Energy>  (845) 
958.93715390220598

>  <compound_id>  (845) 
10611

>  <target_id>  (845) 
1

>  <reference_id>  (845) 
81

>  <inspiration_ids>  (845) 
[116, 81]

>  <energy_score>  (845) 
905.8441720656805

>  <distance_score>  (845) 
7.641878249821872

>  <path>  (845) 
/opt/xchem-fragalysis-2/maxwin/BulkDock/SCRATCH/511021/C10611-P81/C10611-P81.minimised.mol

>  <scratch_subdir>  (845) 
/opt/xchem-fragalysis-2/maxwin/BulkDock/SCRATCH/511021/C10611-P81

>  <fragmenstein_runtime>  (845) 
19.562944412231445

>  <fragmenstein_outcome>  (845) 
too moved

>  <fragmenstein_mode>  (845) 
expansion

>  <fragmenstein_error>  (845) 


$$$$
C50836-P80
     RDKit          3D

 37 38  0  0  0  0  0  0  0  0999 V2000
   -3.4455  -18.1361   25.5194 C   0  0  0  0  0  0  0  0  0  0  0  0
   -4.3717  -16.9712   25.0657 C   0  0  0  0  0  0  0  0  0  0  0  0
   -5.2081  -17.2844   23.6577 C   0  0  0  0  0  0  0  0  0  0  0  0
   -4.7438  -16.8667   22.3069 N   0  0  0  0  0  0  0  0  0  0  0  0
   -4.2077  -17.6524   21.1877 C   0  0  0  0  0  0  0  0  0  0  0  0
   -4.0841  -18.8401   21.0551 O   0  0  0  0  0  0  0  0  0  0  0  0
   -3.5967  -16.8177   20.0104 C   0  0  0  0  0  0  0  0  0  0  0  0
   -2.5491  -17.3555   19.2578 C   0  0  0  0  0  0  0  0  0  0  0  0
   -1.7983  -16.6377   18.3482 N   0  0  0  0  0  0  0  0  0  0  0  0
   -2.1426  -15.3441   18.1987 C   0  0  0  0  0  0  0  0  0  0  0  0
   -3.1784  -14.7936   18.9312 C   0  0  0  0  0  0  0  0  0  0  0  0
   -3.9227  -15.5038   19.8440 N   0  0  0  0  0  0  0  0  0  0  0  0
   -5.3793  -16.9575   26.1198 N   0  0  0  0  0  0  0  0  0  0  0  0
   -5.9307  -18.0171   26.8904 C   0  0  0  0  0  0  0  0  0  0  0  0
   -5.6417  -19.1757   26.9248 O   0  0  0  0  0  0  0  0  0  0  0  0
   -7.4989  -17.3446   27.9058 C   0  0  0  0  0  0  0  0  0  0  0  0
   -9.0459  -18.4075   28.2708 C   0  0  0  0  0  0  0  0  0  0  0  0
   -9.0799  -19.6929   28.3528 N   0  0  0  0  0  0  0  0  0  0  0  0
  -10.2368  -20.8991   29.0153 C   0  0  0  0  0  0  0  0  0  0  0  0
  -11.1744  -20.1164   29.5813 C   0  0  0  0  0  0  0  0  0  0  0  0
  -10.7530  -18.2663   29.1392 N   0  0  0  0  0  0  0  0  0  0  0  0
   -2.4048  -17.8736   25.4253 H   0  0  0  0  0  0  0  0  0  0  0  0
   -3.4846  -18.3359   26.5966 H   0  0  0  0  0  0  0  0  0  0  0  0
   -3.6451  -19.0689   24.9838 H   0  0  0  0  0  0  0  0  0  0  0  0
   -3.7427  -16.1195   24.9584 H   0  0  0  0  0  0  0  0  0  0  0  0
   -6.1570  -16.7481   23.7475 H   0  0  0  0  0  0  0  0  0  0  0  0
   -5.4202  -18.3565   23.6069 H   0  0  0  0  0  0  0  0  0  0  0  0
   -4.7731  -15.8939   22.0427 H   0  0  0  0  0  0  0  0  0  0  0  0
   -2.2344  -18.3856   19.3948 H   0  0  0  0  0  0  0  0  0  0  0  0
   -1.5719  -14.7699   17.4796 H   0  0  0  0  0  0  0  0  0  0  0  0
   -3.4569  -13.7509   18.8142 H   0  0  0  0  0  0  0  0  0  0  0  0
   -5.8107  -16.0887   26.4046 H   0  0  0  0  0  0  0  0  0  0  0  0
   -7.9191  -16.5193   27.3138 H   0  0  0  0  0  0  0  0  0  0  0  0
   -7.1399  -16.9405   28.8565 H   0  0  0  0  0  0  0  0  0  0  0  0
  -10.1340  -21.9153   28.6561 H   0  0  0  0  0  0  0  0  0  0  0  0
  -12.2538  -20.1987   29.5908 H   0  0  0  0  0  0  0  0  0  0  0  0
  -11.4982  -17.9096   28.5912 H   0  0  0  0  0  0  0  0  0  0  0  0
  1  2  1  0
  2  3  1  0
  3  4  1  0
  4  5  1  0
  5  6  2  0
  5  7  1  0
  7  8  2  0
  8  9  1  0
  9 10  2  0
 10 11  1  0
 11 12  2  0
  2 13  1  0
 13 14  1  0
 14 15  2  0
 14 16  1  0
 16 17  1  0
 17 18  2  0
 18 19  1  0
 19 20  2  0
 20 21  1  0
 12  7  1  0
 21 17  1  0
  1 22  1  0
  1 23  1  0
  1 24  1  0
  2 25  1  0
  3 26  1  0
  3 27  1  0
  4 28  1  0
  8 29  1  0
 10 30  1  0
 11 31  1  0
 13 32  1  0
 16 33  1  0
 16 34  1  0
 19 35  1  0
 20 36  1  0
 21 37  1  0
M  END
>  <Energy>  (846) 
458.3053875639248

>  <compound_id>  (846) 
50836

>  <target_id>  (846) 
1

>  <reference_id>  (846) 
80

>  <inspiration_ids>  (846) 
[80, 54]

>  <energy_score>  (846) 
342.34537466469976

>  <distance_score>  (846) 
13.511093480042025

>  <path>  (846) 
/opt/xchem-fragalysis-2/maxwin/BulkDock/SCRATCH/511021/C50836-P80/C50836-P80.minimised.mol

>  <scratch_subdir>  (846) 
/opt/xchem-fragalysis-2/maxwin/BulkDock/SCRATCH/511021/C50836-P80

>  <fragmenstein_runtime>  (846) 
38.429073333740234

>  <fragmenstein_outcome>  (846) 
too moved

>  <fragmenstein_mode>  (846) 
expansion

>  <fragmenstein_error>  (846) 


$$$$
C50836-P54
     RDKit          3D

 37 38  0  0  0  0  0  0  0  0999 V2000
   -3.2445  -10.6592   27.8307 C   0  0  0  0  0  0  0  0  0  0  0  0
   -2.1433  -11.9175   27.6953 C   0  0  0  0  0  0  0  0  0  0  0  0
   -0.9587  -12.5067   26.0862 C   0  0  0  0  0  0  0  0  0  0  0  0
    0.3674  -11.8545   24.5582 N   0  0  0  0  0  0  0  0  0  0  0  0
    0.2375  -12.0025   22.8472 C   0  0  0  0  0  0  0  0  0  0  0  0
   -0.6447  -12.6183   22.2319 O   0  0  0  0  0  0  0  0  0  0  0  0
    1.3123  -11.1169   21.6594 C   0  0  0  0  0  0  0  0  0  0  0  0
    2.3611  -11.4439   21.0007 C   0  0  0  0  0  0  0  0  0  0  0  0
    2.8408  -10.8057   19.5685 N   0  0  0  0  0  0  0  0  0  0  0  0
    2.4169  -10.0742   18.6231 C   0  0  0  0  0  0  0  0  0  0  0  0
    1.2293  -10.0576   19.0707 C   0  0  0  0  0  0  0  0  0  0  0  0
    0.7171  -10.4909   20.5755 N   0  0  0  0  0  0  0  0  0  0  0  0
   -2.6950  -12.5551   29.0847 N   0  0  0  0  0  0  0  0  0  0  0  0
   -3.8262  -13.4753   29.3509 C   0  0  0  0  0  0  0  0  0  0  0  0
   -4.5671  -14.0425   28.5958 O   0  0  0  0  0  0  0  0  0  0  0  0
   -3.9445  -13.7022   30.8594 C   0  0  0  0  0  0  0  0  0  0  0  0
   -5.3128  -14.1465   31.2725 C   0  0  0  0  0  0  0  0  0  0  0  0
   -6.3499  -13.3633   31.5122 N   0  0  0  0  0  0  0  0  0  0  0  0
   -7.2502  -14.1379   32.1909 C   0  0  0  0  0  0  0  0  0  0  0  0
   -6.7294  -15.3841   32.4000 C   0  0  0  0  0  0  0  0  0  0  0  0
   -5.6077  -15.4419   31.6236 N   0  0  0  0  0  0  0  0  0  0  0  0
   -3.4804  -10.0850   26.9319 H   0  0  0  0  0  0  0  0  0  0  0  0
   -2.8817   -9.9541   28.5951 H   0  0  0  0  0  0  0  0  0  0  0  0
   -4.2097  -11.0040   28.2232 H   0  0  0  0  0  0  0  0  0  0  0  0
   -1.2599  -11.6375   28.3220 H   0  0  0  0  0  0  0  0  0  0  0  0
   -0.3716  -13.2346   26.7118 H   0  0  0  0  0  0  0  0  0  0  0  0
   -1.8225  -12.9376   25.5505 H   0  0  0  0  0  0  0  0  0  0  0  0
    1.1880  -11.4083   24.7614 H   0  0  0  0  0  0  0  0  0  0  0  0
    2.8749  -12.3364   21.3399 H   0  0  0  0  0  0  0  0  0  0  0  0
    2.9127   -9.7940   17.7307 H   0  0  0  0  0  0  0  0  0  0  0  0
    0.4157   -9.6416   18.4604 H   0  0  0  0  0  0  0  0  0  0  0  0
   -2.3427  -12.1968   29.9651 H   0  0  0  0  0  0  0  0  0  0  0  0
   -3.7203  -12.7713   31.3929 H   0  0  0  0  0  0  0  0  0  0  0  0
   -3.1954  -14.4458   31.1532 H   0  0  0  0  0  0  0  0  0  0  0  0
   -8.1878  -13.7367   32.5491 H   0  0  0  0  0  0  0  0  0  0  0  0
   -7.0804  -16.2413   32.9507 H   0  0  0  0  0  0  0  0  0  0  0  0
   -5.0307  -16.2586   31.4774 H   0  0  0  0  0  0  0  0  0  0  0  0
  1  2  1  0
  2  3  1  0
  3  4  1  0
  4  5  1  0
  5  6  2  0
  5  7  1  0
  7  8  2  0
  8  9  1  0
  9 10  2  0
 10 11  1  0
 11 12  2  0
  2 13  1  0
 13 14  1  0
 14 15  2  0
 14 16  1  0
 16 17  1  0
 17 18  2  0
 18 19  1  0
 19 20  2  0
 20 21  1  0
 12  7  1  0
 21 17  1  0
  1 22  1  0
  1 23  1  0
  1 24  1  0
  2 25  1  0
  3 26  1  0
  3 27  1  0
  4 28  1  0
  8 29  1  0
 10 30  1  0
 11 31  1  0
 13 32  1  0
 16 33  1  0
 16 34  1  0
 19 35  1  0
 20 36  1  0
 21 37  1  0
M  END
>  <Energy>  (847) 
601.81093225620373

>  <compound_id>  (847) 
50836

>  <target_id>  (847) 
1

>  <reference_id>  (847) 
54

>  <inspiration_ids>  (847) 
[80, 54]

>  <energy_score>  (847) 
485.8509193569918

>  <distance_score>  (847) 
13.05921959995587

>  <path>  (847) 
/opt/xchem-fragalysis-2/maxwin/BulkDock/SCRATCH/511021/C50836-P54/C50836-P54.minimised.mol

>  <scratch_subdir>  (847) 
/opt/xchem-fragalysis-2/maxwin/BulkDock/SCRATCH/511021/C50836-P54

>  <fragmenstein_runtime>  (847) 
28.26753854751587

>  <fragmenstein_outcome>  (847) 
too moved

>  <fragmenstein_mode>  (847) 
expansion

>  <fragmenstein_error>  (847) 


$$$$
C50837-P80
     RDKit          3D

 43 44  0  0  0  0  0  0  0  0999 V2000
   -4.0481  -22.9093   26.7965 C   0  0  0  0  0  0  0  0  0  0  0  0
   -3.4045  -21.5469   26.8199 C   0  0  0  0  0  0  0  0  0  0  0  0
   -3.8563  -20.6799   25.7110 C   0  0  0  0  0  0  0  0  0  0  0  0
   -3.8830  -20.8597   24.3460 C   0  0  0  0  0  0  0  0  0  0  0  0
   -4.3064  -19.7198   23.7106 N   0  0  0  0  0  0  0  0  0  0  0  0
   -4.5419  -18.8364   24.6612 C   0  0  0  0  0  0  0  0  0  0  0  0
   -4.8075  -17.3644   24.4671 C   0  0  0  0  0  0  0  0  0  0  0  0
   -3.6458  -16.6762   25.1681 C   0  0  0  0  0  0  0  0  0  0  0  0
   -3.3858  -17.0591   26.2833 O   0  0  0  0  0  0  0  0  0  0  0  0
   -2.9581  -15.6715   24.2997 N   0  0  0  0  0  0  0  0  0  0  0  0
   -1.6306  -14.8756   24.5167 C   0  0  0  0  0  0  0  0  0  0  0  0
   -2.1400  -14.4040   25.8684 C   0  0  0  0  0  0  0  0  0  0  0  0
   -0.3407  -13.8842   23.3192 C   0  0  0  0  0  0  0  0  0  0  0  0
    0.0697  -12.0077   22.7598 N   0  0  0  0  0  0  0  0  0  0  0  0
   -0.8575  -10.8660   21.7465 C   0  0  0  0  0  0  0  0  0  0  0  0
   -1.8929  -11.1058   21.1402 O   0  0  0  0  0  0  0  0  0  0  0  0
   -0.5112   -9.3508   21.6239 C   0  0  0  0  0  0  0  0  0  0  0  0
    0.6381   -8.6997   21.3003 C   0  0  0  0  0  0  0  0  0  0  0  0
    0.8147   -7.3422   21.1118 N   0  0  0  0  0  0  0  0  0  0  0  0
   -0.2840   -6.6051   21.2171 C   0  0  0  0  0  0  0  0  0  0  0  0
   -1.4737   -7.2067   21.5415 C   0  0  0  0  0  0  0  0  0  0  0  0
   -1.6038   -8.5453   21.7730 N   0  0  0  0  0  0  0  0  0  0  0  0
   -4.3363  -19.4096   25.9044 N   0  0  0  0  0  0  0  0  0  0  0  0
   -5.1322  -22.8236   26.9139 H   0  0  0  0  0  0  0  0  0  0  0  0
   -3.8441  -23.4369   25.8590 H   0  0  0  0  0  0  0  0  0  0  0  0
   -3.6555  -23.5154   27.6188 H   0  0  0  0  0  0  0  0  0  0  0  0
   -3.5946  -21.0734   27.7869 H   0  0  0  0  0  0  0  0  0  0  0  0
   -2.3163  -21.6656   26.7478 H   0  0  0  0  0  0  0  0  0  0  0  0
   -3.6025  -21.7412   23.7830 H   0  0  0  0  0  0  0  0  0  0  0  0
   -5.7089  -17.0017   24.9431 H   0  0  0  0  0  0  0  0  0  0  0  0
   -4.8817  -17.1151   23.4051 H   0  0  0  0  0  0  0  0  0  0  0  0
   -3.4990  -15.5371   23.4543 H   0  0  0  0  0  0  0  0  0  0  0  0
   -1.1517  -15.7270   24.4997 H   0  0  0  0  0  0  0  0  0  0  0  0
   -2.5202  -13.3717   25.7485 H   0  0  0  0  0  0  0  0  0  0  0  0
   -2.9263  -14.9438   26.4150 H   0  0  0  0  0  0  0  0  0  0  0  0
   -1.6735  -14.7627   26.8023 H   0  0  0  0  0  0  0  0  0  0  0  0
   -0.3621  -14.4333   22.4060 H   0  0  0  0  0  0  0  0  0  0  0  0
    0.5685  -14.1252   23.8931 H   0  0  0  0  0  0  0  0  0  0  0  0
    0.9040  -11.5299   23.1381 H   0  0  0  0  0  0  0  0  0  0  0  0
    1.5093   -9.2707   21.1262 H   0  0  0  0  0  0  0  0  0  0  0  0
   -0.1920   -5.5427   21.0420 H   0  0  0  0  0  0  0  0  0  0  0  0
   -2.3907   -6.6361   21.6295 H   0  0  0  0  0  0  0  0  0  0  0  0
   -4.3565  -18.8899   26.7760 H   0  0  0  0  0  0  0  0  0  0  0  0
  1  2  1  0
  2  3  1  0
  3  4  2  0
  4  5  1  0
  5  6  2  0
  6  7  1  0
  7  8  1  0
  8  9  2  0
  8 10  1  0
 10 11  1  0
 11 12  1  0
 11 13  1  0
 13 14  1  0
 14 15  1  0
 15 16  2  0
 15 17  1  0
 17 18  2  0
 18 19  1  0
 19 20  2  0
 20 21  1  0
 21 22  2  0
  6 23  1  0
 23  3  1  0
 22 17  1  0
  1 24  1  0
  1 25  1  0
  1 26  1  0
  2 27  1  0
  2 28  1  0
  4 29  1  0
  7 30  1  0
  7 31  1  0
 10 32  1  0
 11 33  1  0
 12 34  1  0
 12 35  1  0
 12 36  1  0
 13 37  1  0
 13 38  1  0
 14 39  1  0
 18 40  1  0
 20 41  1  0
 21 42  1  0
 23 43  1  0
M  END
>  <Energy>  (848) 
402.09144940224763

>  <compound_id>  (848) 
50837

>  <target_id>  (848) 
1

>  <reference_id>  (848) 
80

>  <inspiration_ids>  (848) 
[80, 54]

>  <energy_score>  (848) 
277.93692016877355

>  <distance_score>  (848) 
13.129574502729152

>  <path>  (848) 
/opt/xchem-fragalysis-2/maxwin/BulkDock/SCRATCH/511021/C50837-P80/C50837-P80.minimised.mol

>  <scratch_subdir>  (848) 
/opt/xchem-fragalysis-2/maxwin/BulkDock/SCRATCH/511021/C50837-P80

>  <fragmenstein_runtime>  (848) 
43.96898317337036

>  <fragmenstein_outcome>  (848) 
too moved

>  <fragmenstein_mode>  (848) 
expansion

>  <fragmenstein_error>  (848) 


$$$$
C50837-P54
     RDKit          3D

 43 44  0  0  0  0  0  0  0  0999 V2000
   -2.4675  -20.6539   28.0463 C   0  0  0  0  0  0  0  0  0  0  0  0
   -3.2859  -20.1317   26.8725 C   0  0  0  0  0  0  0  0  0  0  0  0
   -2.6324  -20.4451   25.5726 C   0  0  0  0  0  0  0  0  0  0  0  0
   -3.0958  -21.1359   24.4789 C   0  0  0  0  0  0  0  0  0  0  0  0
   -2.1361  -21.1827   23.5020 N   0  0  0  0  0  0  0  0  0  0  0  0
   -1.0677  -20.5492   23.9676 C   0  0  0  0  0  0  0  0  0  0  0  0
    0.2557  -20.4450   23.2066 C   0  0  0  0  0  0  0  0  0  0  0  0
    1.4049  -19.5518   23.7605 C   0  0  0  0  0  0  0  0  0  0  0  0
    1.2256  -18.8431   24.7149 O   0  0  0  0  0  0  0  0  0  0  0  0
    2.6175  -19.7803   22.9447 N   0  0  0  0  0  0  0  0  0  0  0  0
    3.9719  -19.1291   22.9884 C   0  0  0  0  0  0  0  0  0  0  0  0
    4.4264  -18.8498   24.4139 C   0  0  0  0  0  0  0  0  0  0  0  0
    4.0343  -17.8621   22.0959 C   0  0  0  0  0  0  0  0  0  0  0  0
    5.2810  -17.2271   21.6284 N   0  0  0  0  0  0  0  0  0  0  0  0
    5.8451  -17.1116   20.3036 C   0  0  0  0  0  0  0  0  0  0  0  0
    5.4844  -17.5736   19.2568 O   0  0  0  0  0  0  0  0  0  0  0  0
    7.0403  -16.1608   20.1888 C   0  0  0  0  0  0  0  0  0  0  0  0
    7.3728  -15.6539   18.9242 C   0  0  0  0  0  0  0  0  0  0  0  0
    8.2863  -14.6533   18.7088 N   0  0  0  0  0  0  0  0  0  0  0  0
    8.8693  -14.1753   19.8256 C   0  0  0  0  0  0  0  0  0  0  0  0
    8.5611  -14.6808   21.0841 C   0  0  0  0  0  0  0  0  0  0  0  0
    7.6366  -15.6674   21.3090 N   0  0  0  0  0  0  0  0  0  0  0  0
   -1.3457  -20.0642   25.2286 N   0  0  0  0  0  0  0  0  0  0  0  0
   -2.9493  -20.4029   28.9939 H   0  0  0  0  0  0  0  0  0  0  0  0
   -2.3535  -21.7420   27.9972 H   0  0  0  0  0  0  0  0  0  0  0  0
   -1.4645  -20.2138   28.0638 H   0  0  0  0  0  0  0  0  0  0  0  0
   -4.2921  -20.5616   26.9043 H   0  0  0  0  0  0  0  0  0  0  0  0
   -3.4014  -19.0453   26.9644 H   0  0  0  0  0  0  0  0  0  0  0  0
   -4.0607  -21.6084   24.3415 H   0  0  0  0  0  0  0  0  0  0  0  0
    0.6445  -21.4671   23.1143 H   0  0  0  0  0  0  0  0  0  0  0  0
    0.0260  -20.0782   22.1982 H   0  0  0  0  0  0  0  0  0  0  0  0
    2.4290  -20.5093   22.2649 H   0  0  0  0  0  0  0  0  0  0  0  0
    4.6486  -19.8752   22.5546 H   0  0  0  0  0  0  0  0  0  0  0  0
    3.7909  -18.1016   24.8965 H   0  0  0  0  0  0  0  0  0  0  0  0
    4.3863  -19.7608   25.0205 H   0  0  0  0  0  0  0  0  0  0  0  0
    5.4560  -18.4777   24.4282 H   0  0  0  0  0  0  0  0  0  0  0  0
    3.4936  -18.1057   21.1753 H   0  0  0  0  0  0  0  0  0  0  0  0
    3.5017  -17.0579   22.6121 H   0  0  0  0  0  0  0  0  0  0  0  0
    5.8047  -16.6343   22.2628 H   0  0  0  0  0  0  0  0  0  0  0  0
    6.8765  -16.0131   18.0270 H   0  0  0  0  0  0  0  0  0  0  0  0
    9.5937  -13.3817   19.6909 H   0  0  0  0  0  0  0  0  0  0  0  0
    9.0404  -14.2858   21.9738 H   0  0  0  0  0  0  0  0  0  0  0  0
   -0.6915  -19.5322   25.7921 H   0  0  0  0  0  0  0  0  0  0  0  0
  1  2  1  0
  2  3  1  0
  3  4  2  0
  4  5  1  0
  5  6  2  0
  6  7  1  0
  7  8  1  0
  8  9  2  0
  8 10  1  0
 10 11  1  0
 11 12  1  0
 11 13  1  0
 13 14  1  0
 14 15  1  0
 15 16  2  0
 15 17  1  0
 17 18  2  0
 18 19  1  0
 19 20  2  0
 20 21  1  0
 21 22  2  0
  6 23  1  0
 23  3  1  0
 22 17  1  0
  1 24  1  0
  1 25  1  0
  1 26  1  0
  2 27  1  0
  2 28  1  0
  4 29  1  0
  7 30  1  0
  7 31  1  0
 10 32  1  0
 11 33  1  0
 12 34  1  0
 12 35  1  0
 12 36  1  0
 13 37  1  0
 13 38  1  0
 14 39  1  0
 18 40  1  0
 20 41  1  0
 21 42  1  0
 23 43  1  0
M  END
>  <Energy>  (849) 
110.64024030996906

>  <compound_id>  (849) 
50837

>  <target_id>  (849) 
1

>  <reference_id>  (849) 
54

>  <inspiration_ids>  (849) 
[80, 54]

>  <energy_score>  (849) 
-13.514288923485594

>  <distance_score>  (849) 
14.113321230179624

>  <path>  (849) 
/opt/xchem-fragalysis-2/maxwin/BulkDock/SCRATCH/511021/C50837-P54/C50837-P54.minimised.mol

>  <scratch_subdir>  (849) 
/opt/xchem-fragalysis-2/maxwin/BulkDock/SCRATCH/511021/C50837-P54

>  <fragmenstein_runtime>  (849) 
54.020825147628784

>  <fragmenstein_outcome>  (849) 
too moved

>  <fragmenstein_mode>  (849) 
expansion

>  <fragmenstein_error>  (849) 


$$$$
C50838-P80
     RDKit          3D

 44 46  0  0  0  0  0  0  0  0999 V2000
   -7.3559  -17.3874   29.0088 C   0  0  0  0  0  0  0  0  0  0  0  0
   -7.7589  -18.6811   27.7194 C   0  0  0  0  0  0  0  0  0  0  0  0
   -6.0596  -19.1567   26.7806 C   0  0  0  0  0  0  0  0  0  0  0  0
   -4.9277  -20.3439   26.3129 N   0  0  0  0  0  0  0  0  0  0  0  0
   -4.1979  -20.5461   25.0010 C   0  0  0  0  0  0  0  0  0  0  0  0
   -4.3061  -19.9632   23.9478 O   0  0  0  0  0  0  0  0  0  0  0  0
   -3.0668  -21.5341   24.9237 C   0  0  0  0  0  0  0  0  0  0  0  0
   -2.4127  -21.6269   23.6552 C   0  0  0  0  0  0  0  0  0  0  0  0
   -1.2099  -22.2255   23.4460 N   0  0  0  0  0  0  0  0  0  0  0  0
   -0.6655  -22.7268   24.5706 C   0  0  0  0  0  0  0  0  0  0  0  0
   -1.3141  -22.6727   25.8177 C   0  0  0  0  0  0  0  0  0  0  0  0
   -2.5093  -22.0442   26.0465 N   0  0  0  0  0  0  0  0  0  0  0  0
   -8.1746  -20.6966   27.7508 N   0  0  0  0  0  0  0  0  0  0  0  0
   -9.6677  -21.6061   28.3990 C   0  0  0  0  0  0  0  0  0  0  0  0
  -10.6597  -21.1803   28.9940 O   0  0  0  0  0  0  0  0  0  0  0  0
   -9.6640  -23.1614   28.1011 C   0  0  0  0  0  0  0  0  0  0  0  0
  -10.2247  -24.0682   29.1351 C   0  0  0  0  0  0  0  0  0  0  0  0
   -9.7863  -25.2873   29.3684 N   0  0  0  0  0  0  0  0  0  0  0  0
  -10.3403  -25.6498   30.5663 C   0  0  0  0  0  0  0  0  0  0  0  0
  -11.1614  -24.6557   31.0327 C   0  0  0  0  0  0  0  0  0  0  0  0
  -11.2008  -23.7202   30.0386 N   0  0  0  0  0  0  0  0  0  0  0  0
   -8.8590  -17.3158   27.1302 C   0  0  0  0  0  0  0  0  0  0  0  0
   -8.4165  -15.8943   26.5873 C   0  0  0  0  0  0  0  0  0  0  0  0
   -9.6878  -16.2927   26.1704 C   0  0  0  0  0  0  0  0  0  0  0  0
   -6.2849  -17.1601   29.1673 H   0  0  0  0  0  0  0  0  0  0  0  0
   -7.4686  -17.7624   30.0005 H   0  0  0  0  0  0  0  0  0  0  0  0
   -7.6936  -16.4039   28.7283 H   0  0  0  0  0  0  0  0  0  0  0  0
   -5.4267  -18.4305   27.2712 H   0  0  0  0  0  0  0  0  0  0  0  0
   -6.1369  -18.9430   25.7557 H   0  0  0  0  0  0  0  0  0  0  0  0
   -4.6460  -21.0640   26.9632 H   0  0  0  0  0  0  0  0  0  0  0  0
   -2.8316  -21.1718   22.7622 H   0  0  0  0  0  0  0  0  0  0  0  0
    0.3055  -23.1958   24.4592 H   0  0  0  0  0  0  0  0  0  0  0  0
   -0.8447  -23.1098   26.6931 H   0  0  0  0  0  0  0  0  0  0  0  0
   -7.5086  -21.3480   27.3915 H   0  0  0  0  0  0  0  0  0  0  0  0
   -8.6329  -23.3717   27.9304 H   0  0  0  0  0  0  0  0  0  0  0  0
  -10.2680  -23.3863   27.2152 H   0  0  0  0  0  0  0  0  0  0  0  0
  -10.0890  -26.5865   31.0503 H   0  0  0  0  0  0  0  0  0  0  0  0
  -11.7262  -24.5491   31.9489 H   0  0  0  0  0  0  0  0  0  0  0  0
  -11.6561  -22.8156   30.0840 H   0  0  0  0  0  0  0  0  0  0  0  0
   -9.7773  -17.7122   27.4269 H   0  0  0  0  0  0  0  0  0  0  0  0
   -8.3647  -15.0305   27.2481 H   0  0  0  0  0  0  0  0  0  0  0  0
   -7.9835  -15.6612   25.6040 H   0  0  0  0  0  0  0  0  0  0  0  0
   -9.8921  -16.4562   25.1211 H   0  0  0  0  0  0  0  0  0  0  0  0
  -10.3705  -15.5418   26.5829 H   0  0  0  0  0  0  0  0  0  0  0  0
  1  2  1  0
  2  3  1  0
  3  4  1  0
  4  5  1  0
  5  6  2  0
  5  7  1  0
  7  8  2  0
  8  9  1  0
  9 10  2  0
 10 11  1  0
 11 12  2  0
  2 13  1  0
 13 14  1  0
 14 15  2  0
 14 16  1  0
 16 17  1  0
 17 18  2  0
 18 19  1  0
 19 20  2  0
 20 21  1  0
  2 22  1  0
 22 23  1  0
 23 24  1  0
 12  7  1  0
 21 17  1  0
 24 22  1  0
  1 25  1  0
  1 26  1  0
  1 27  1  0
  3 28  1  0
  3 29  1  0
  4 30  1  0
  8 31  1  0
 10 32  1  0
 11 33  1  0
 13 34  1  0
 16 35  1  0
 16 36  1  0
 19 37  1  0
 20 38  1  0
 21 39  1  0
 22 40  1  0
 23 41  1  0
 23 42  1  0
 24 43  1  0
 24 44  1  0
M  END
>  <Energy>  (850) 
594.00085720041034

>  <compound_id>  (850) 
50838

>  <target_id>  (850) 
1

>  <reference_id>  (850) 
80

>  <inspiration_ids>  (850) 
[80, 54]

>  <energy_score>  (850) 
430.43247427568167

>  <distance_score>  (850) 
15.44412341861766

>  <path>  (850) 
/opt/xchem-fragalysis-2/maxwin/BulkDock/SCRATCH/511021/C50838-P80/C50838-P80.minimised.mol

>  <scratch_subdir>  (850) 
/opt/xchem-fragalysis-2/maxwin/BulkDock/SCRATCH/511021/C50838-P80

>  <fragmenstein_runtime>  (850) 
53.399030685424805

>  <fragmenstein_outcome>  (850) 
too moved

>  <fragmenstein_mode>  (850) 
expansion

>  <fragmenstein_error>  (850) 


$$$$
C50838-P54
     RDKit          3D

 44 46  0  0  0  0  0  0  0  0999 V2000
   -4.7245  -14.9976   21.5524 C   0  0  0  0  0  0  0  0  0  0  0  0
   -4.5938  -16.0693   20.4609 C   0  0  0  0  0  0  0  0  0  0  0  0
   -3.9644  -15.3813   19.1578 C   0  0  0  0  0  0  0  0  0  0  0  0
   -2.8055  -14.4447   19.2363 N   0  0  0  0  0  0  0  0  0  0  0  0
   -1.7124  -14.2036   18.3091 C   0  0  0  0  0  0  0  0  0  0  0  0
   -1.4222  -14.7533   17.2835 O   0  0  0  0  0  0  0  0  0  0  0  0
   -0.8090  -12.9985   18.6374 C   0  0  0  0  0  0  0  0  0  0  0  0
    0.2439  -12.6332   17.7768 C   0  0  0  0  0  0  0  0  0  0  0  0
    1.0698  -11.5569   17.9817 N   0  0  0  0  0  0  0  0  0  0  0  0
    0.7996  -10.8404   19.0903 C   0  0  0  0  0  0  0  0  0  0  0  0
   -0.2381  -11.1927   19.9511 C   0  0  0  0  0  0  0  0  0  0  0  0
   -1.0594  -12.2671   19.7588 N   0  0  0  0  0  0  0  0  0  0  0  0
   -5.9270  -16.6566   20.1536 N   0  0  0  0  0  0  0  0  0  0  0  0
   -7.1084  -16.8352   20.9889 C   0  0  0  0  0  0  0  0  0  0  0  0
   -7.3332  -16.4801   22.1158 O   0  0  0  0  0  0  0  0  0  0  0  0
   -8.2080  -17.6164   20.2420 C   0  0  0  0  0  0  0  0  0  0  0  0
   -8.4862  -18.9544   20.8705 C   0  0  0  0  0  0  0  0  0  0  0  0
   -7.6417  -19.9624   20.9787 N   0  0  0  0  0  0  0  0  0  0  0  0
   -8.3832  -21.0407   21.3967 C   0  0  0  0  0  0  0  0  0  0  0  0
   -9.6972  -20.6851   21.5690 C   0  0  0  0  0  0  0  0  0  0  0  0
   -9.7431  -19.3491   21.2831 N   0  0  0  0  0  0  0  0  0  0  0  0
   -3.7084  -17.2360   20.9227 C   0  0  0  0  0  0  0  0  0  0  0  0
   -4.0529  -18.1097   22.1146 C   0  0  0  0  0  0  0  0  0  0  0  0
   -4.0572  -18.7045   20.7371 C   0  0  0  0  0  0  0  0  0  0  0  0
   -5.4141  -14.2045   21.2417 H   0  0  0  0  0  0  0  0  0  0  0  0
   -3.7672  -14.5303   21.7955 H   0  0  0  0  0  0  0  0  0  0  0  0
   -5.1062  -15.4173   22.4857 H   0  0  0  0  0  0  0  0  0  0  0  0
   -3.6905  -16.1594   18.4347 H   0  0  0  0  0  0  0  0  0  0  0  0
   -4.7543  -14.7877   18.6797 H   0  0  0  0  0  0  0  0  0  0  0  0
   -2.7904  -13.7296   19.9598 H   0  0  0  0  0  0  0  0  0  0  0  0
    0.4513  -13.2057   16.8763 H   0  0  0  0  0  0  0  0  0  0  0  0
    1.4307   -9.9789   19.2754 H   0  0  0  0  0  0  0  0  0  0  0  0
   -0.4422  -10.6032   20.8398 H   0  0  0  0  0  0  0  0  0  0  0  0
   -6.0564  -17.1612   19.2848 H   0  0  0  0  0  0  0  0  0  0  0  0
   -9.1091  -16.9912   20.2496 H   0  0  0  0  0  0  0  0  0  0  0  0
   -7.9457  -17.7704   19.1903 H   0  0  0  0  0  0  0  0  0  0  0  0
   -7.9347  -22.0145   21.5466 H   0  0  0  0  0  0  0  0  0  0  0  0
  -10.5667  -21.2439   21.8832 H   0  0  0  0  0  0  0  0  0  0  0  0
  -10.5717  -18.7689   21.3507 H   0  0  0  0  0  0  0  0  0  0  0  0
   -2.6613  -17.0300   20.7301 H   0  0  0  0  0  0  0  0  0  0  0  0
   -5.0062  -17.9717   22.6051 H   0  0  0  0  0  0  0  0  0  0  0  0
   -3.2426  -18.3782   22.7839 H   0  0  0  0  0  0  0  0  0  0  0  0
   -3.2498  -19.3861   20.4881 H   0  0  0  0  0  0  0  0  0  0  0  0
   -5.0152  -19.0200   20.3444 H   0  0  0  0  0  0  0  0  0  0  0  0
  1  2  1  0
  2  3  1  0
  3  4  1  0
  4  5  1  0
  5  6  2  0
  5  7  1  0
  7  8  2  0
  8  9  1  0
  9 10  2  0
 10 11  1  0
 11 12  2  0
  2 13  1  0
 13 14  1  0
 14 15  2  0
 14 16  1  0
 16 17  1  0
 17 18  2  0
 18 19  1  0
 19 20  2  0
 20 21  1  0
  2 22  1  0
 22 23  1  0
 23 24  1  0
 12  7  1  0
 21 17  1  0
 24 22  1  0
  1 25  1  0
  1 26  1  0
  1 27  1  0
  3 28  1  0
  3 29  1  0
  4 30  1  0
  8 31  1  0
 10 32  1  0
 11 33  1  0
 13 34  1  0
 16 35  1  0
 16 36  1  0
 19 37  1  0
 20 38  1  0
 21 39  1  0
 22 40  1  0
 23 41  1  0
 23 42  1  0
 24 43  1  0
 24 44  1  0
M  END
>  <Energy>  (851) 
139.16578592608661

>  <compound_id>  (851) 
50838

>  <target_id>  (851) 
1

>  <reference_id>  (851) 
54

>  <inspiration_ids>  (851) 
[80, 54]

>  <energy_score>  (851) 
-24.402596998625484

>  <distance_score>  (851) 
13.333958480839517

>  <path>  (851) 
/opt/xchem-fragalysis-2/maxwin/BulkDock/SCRATCH/511021/C50838-P54/C50838-P54.minimised.mol

>  <scratch_subdir>  (851) 
/opt/xchem-fragalysis-2/maxwin/BulkDock/SCRATCH/511021/C50838-P54

>  <fragmenstein_runtime>  (851) 
47.24875211715698

>  <fragmenstein_outcome>  (851) 
too moved

>  <fragmenstein_mode>  (851) 
expansion

>  <fragmenstein_error>  (851) 


$$$$
C28782-P80
     RDKit          3D

 36 37  0  0  0  0  0  0  0  0999 V2000
    7.4618  -11.4982   21.3601 C   0  0  0  0  0  0  0  0  0  0  0  0
    6.6976  -10.9322   22.5274 C   0  0  0  0  0  0  0  0  0  0  0  0
    7.4102  -10.0815   23.3529 N   0  0  0  0  0  0  0  0  0  0  0  0
    6.5402   -9.1652   23.8195 C   0  0  0  0  0  0  0  0  0  0  0  0
    5.3143   -9.5209   23.5003 N   0  0  0  0  0  0  0  0  0  0  0  0
    5.2316  -10.8340   22.8904 C   0  0  0  0  0  0  0  0  0  0  0  0
    3.5977  -12.1044   22.8696 C   0  0  0  0  0  0  0  0  0  0  0  0
    2.0509  -12.6159   23.9860 C   0  0  0  0  0  0  0  0  0  0  0  0
    1.8710  -11.8349   24.8425 O   0  0  0  0  0  0  0  0  0  0  0  0
    0.8854  -14.0097   23.6863 N   0  0  0  0  0  0  0  0  0  0  0  0
   -0.7775  -14.4232   24.4613 C   0  0  0  0  0  0  0  0  0  0  0  0
   -2.2958  -15.4384   25.1920 C   0  0  0  0  0  0  0  0  0  0  0  0
   -2.4718  -16.8076   26.6503 C   0  0  0  0  0  0  0  0  0  0  0  0
   -2.9646  -17.3859   28.0376 C   0  0  0  0  0  0  0  0  0  0  0  0
   -2.4201  -18.6087   28.4421 C   0  0  0  0  0  0  0  0  0  0  0  0
   -2.5155  -19.1602   29.6790 N   0  0  0  0  0  0  0  0  0  0  0  0
   -3.2234  -18.4501   30.5660 C   0  0  0  0  0  0  0  0  0  0  0  0
   -3.8527  -17.3035   30.3052 N   0  0  0  0  0  0  0  0  0  0  0  0
   -3.6922  -16.7970   29.0534 C   0  0  0  0  0  0  0  0  0  0  0  0
    8.3793  -12.0065   21.6696 H   0  0  0  0  0  0  0  0  0  0  0  0
    7.8146  -10.6912   20.7069 H   0  0  0  0  0  0  0  0  0  0  0  0
    6.8211  -12.1444   20.7618 H   0  0  0  0  0  0  0  0  0  0  0  0
    8.4163   -9.9957   23.3740 H   0  0  0  0  0  0  0  0  0  0  0  0
    6.8236   -8.2677   24.3529 H   0  0  0  0  0  0  0  0  0  0  0  0
    3.8319  -12.6404   23.7699 H   0  0  0  0  0  0  0  0  0  0  0  0
    3.1509  -11.1444   22.9171 H   0  0  0  0  0  0  0  0  0  0  0  0
    1.1736  -14.5067   22.8650 H   0  0  0  0  0  0  0  0  0  0  0  0
   -1.1435  -14.6460   23.4648 H   0  0  0  0  0  0  0  0  0  0  0  0
   -1.1062  -13.5912   25.0817 H   0  0  0  0  0  0  0  0  0  0  0  0
   -3.0674  -15.5320   24.4462 H   0  0  0  0  0  0  0  0  0  0  0  0
   -2.4617  -14.5756   25.8325 H   0  0  0  0  0  0  0  0  0  0  0  0
   -1.9471  -17.6740   26.2058 H   0  0  0  0  0  0  0  0  0  0  0  0
   -1.8662  -16.1969   27.3654 H   0  0  0  0  0  0  0  0  0  0  0  0
   -1.8169  -19.1937   27.7519 H   0  0  0  0  0  0  0  0  0  0  0  0
   -3.3185  -18.8505   31.5684 H   0  0  0  0  0  0  0  0  0  0  0  0
   -4.1395  -15.8212   28.9739 H   0  0  0  0  0  0  0  0  0  0  0  0
  1  2  1  0
  2  3  1  0
  3  4  1  0
  4  5  2  0
  5  6  1  0
  6  7  1  0
  7  8  1  0
  8  9  2  0
  8 10  1  0
 10 11  1  0
 11 12  1  0
 12 13  1  0
 13 14  1  0
 14 15  2  0
 15 16  1  0
 16 17  2  0
 17 18  1  0
 18 19  2  0
  6  2  2  0
 19 14  1  0
  1 20  1  0
  1 21  1  0
  1 22  1  0
  3 23  1  0
  4 24  1  0
  7 25  1  0
  7 26  1  0
 10 27  1  0
 11 28  1  0
 11 29  1  0
 12 30  1  0
 12 31  1  0
 13 32  1  0
 13 33  1  0
 15 34  1  0
 17 35  1  0
 19 36  1  0
M  END
>  <Energy>  (852) 
597.48178651788498

>  <compound_id>  (852) 
28782

>  <target_id>  (852) 
1

>  <reference_id>  (852) 
80

>  <inspiration_ids>  (852) 
[80, 54]

>  <energy_score>  (852) 
573.0390333451661

>  <distance_score>  (852) 
11.502530294085217

>  <path>  (852) 
/opt/xchem-fragalysis-2/maxwin/BulkDock/SCRATCH/511021/C28782-P80/C28782-P80.minimised.mol

>  <scratch_subdir>  (852) 
/opt/xchem-fragalysis-2/maxwin/BulkDock/SCRATCH/511021/C28782-P80

>  <fragmenstein_runtime>  (852) 
41.506183385849

>  <fragmenstein_outcome>  (852) 
too moved

>  <fragmenstein_mode>  (852) 
expansion

>  <fragmenstein_error>  (852) 


$$$$
C28782-P54
     RDKit          3D

 36 37  0  0  0  0  0  0  0  0999 V2000
    8.4786  -10.7390   21.9080 C   0  0  0  0  0  0  0  0  0  0  0  0
    7.4148   -9.7092   21.7557 C   0  0  0  0  0  0  0  0  0  0  0  0
    7.7293   -8.4923   21.1883 N   0  0  0  0  0  0  0  0  0  0  0  0
    6.7089   -7.6430   21.4599 C   0  0  0  0  0  0  0  0  0  0  0  0
    5.7398   -8.2706   22.0793 N   0  0  0  0  0  0  0  0  0  0  0  0
    6.0782   -9.6163   22.1845 C   0  0  0  0  0  0  0  0  0  0  0  0
    5.2305  -10.6262   23.1336 C   0  0  0  0  0  0  0  0  0  0  0  0
    3.8861  -11.9512   22.6850 C   0  0  0  0  0  0  0  0  0  0  0  0
    2.7908  -11.6278   22.4588 O   0  0  0  0  0  0  0  0  0  0  0  0
    4.4691  -13.1575   22.6046 N   0  0  0  0  0  0  0  0  0  0  0  0
    3.8821  -14.5816   22.2853 C   0  0  0  0  0  0  0  0  0  0  0  0
    2.9164  -15.2683   24.0155 C   0  0  0  0  0  0  0  0  0  0  0  0
    1.4210  -14.9044   25.3998 C   0  0  0  0  0  0  0  0  0  0  0  0
   -0.4316  -15.4057   25.9018 C   0  0  0  0  0  0  0  0  0  0  0  0
   -1.5838  -14.1238   26.0930 C   0  0  0  0  0  0  0  0  0  0  0  0
   -2.8330  -13.9880   25.9602 N   0  0  0  0  0  0  0  0  0  0  0  0
   -3.2061  -15.1948   25.9232 C   0  0  0  0  0  0  0  0  0  0  0  0
   -2.4495  -16.3329   25.7101 N   0  0  0  0  0  0  0  0  0  0  0  0
   -1.1715  -16.4210   25.5489 C   0  0  0  0  0  0  0  0  0  0  0  0
    8.2455  -11.4604   22.6949 H   0  0  0  0  0  0  0  0  0  0  0  0
    8.6426  -11.2719   20.9678 H   0  0  0  0  0  0  0  0  0  0  0  0
    9.4272  -10.2662   22.1872 H   0  0  0  0  0  0  0  0  0  0  0  0
    8.6288   -8.2373   20.8056 H   0  0  0  0  0  0  0  0  0  0  0  0
    6.7260   -6.5875   21.2260 H   0  0  0  0  0  0  0  0  0  0  0  0
    6.1726  -11.1113   23.4069 H   0  0  0  0  0  0  0  0  0  0  0  0
    4.9718  -10.1095   24.0644 H   0  0  0  0  0  0  0  0  0  0  0  0
    5.4046  -13.0888   22.9544 H   0  0  0  0  0  0  0  0  0  0  0  0
    4.8971  -14.7468   21.9683 H   0  0  0  0  0  0  0  0  0  0  0  0
    3.2905  -14.4553   21.3933 H   0  0  0  0  0  0  0  0  0  0  0  0
    3.4103  -14.5993   24.7295 H   0  0  0  0  0  0  0  0  0  0  0  0
    3.1702  -16.3248   24.0048 H   0  0  0  0  0  0  0  0  0  0  0  0
    1.7258  -14.1542   26.1262 H   0  0  0  0  0  0  0  0  0  0  0  0
    1.5868  -15.8725   25.5469 H   0  0  0  0  0  0  0  0  0  0  0  0
   -1.1707  -13.1306   26.4032 H   0  0  0  0  0  0  0  0  0  0  0  0
   -4.2412  -15.3256   26.2639 H   0  0  0  0  0  0  0  0  0  0  0  0
   -0.9311  -17.4193   25.7207 H   0  0  0  0  0  0  0  0  0  0  0  0
  1  2  1  0
  2  3  1  0
  3  4  1  0
  4  5  2  0
  5  6  1  0
  6  7  1  0
  7  8  1  0
  8  9  2  0
  8 10  1  0
 10 11  1  0
 11 12  1  0
 12 13  1  0
 13 14  1  0
 14 15  2  0
 15 16  1  0
 16 17  2  0
 17 18  1  0
 18 19  2  0
  6  2  2  0
 19 14  1  0
  1 20  1  0
  1 21  1  0
  1 22  1  0
  3 23  1  0
  4 24  1  0
  7 25  1  0
  7 26  1  0
 10 27  1  0
 11 28  1  0
 11 29  1  0
 12 30  1  0
 12 31  1  0
 13 32  1  0
 13 33  1  0
 15 34  1  0
 17 35  1  0
 19 36  1  0
M  END
>  <Energy>  (853) 
454.99411066646292

>  <compound_id>  (853) 
28782

>  <target_id>  (853) 
1

>  <reference_id>  (853) 
54

>  <inspiration_ids>  (853) 
[80, 54]

>  <energy_score>  (853) 
430.5513574937539

>  <distance_score>  (853) 
12.352902304806857

>  <path>  (853) 
/opt/xchem-fragalysis-2/maxwin/BulkDock/SCRATCH/511021/C28782-P54/C28782-P54.minimised.mol

>  <scratch_subdir>  (853) 
/opt/xchem-fragalysis-2/maxwin/BulkDock/SCRATCH/511021/C28782-P54

>  <fragmenstein_runtime>  (853) 
14.117820739746094

>  <fragmenstein_outcome>  (853) 
too moved

>  <fragmenstein_mode>  (853) 
expansion

>  <fragmenstein_error>  (853) 


$$$$
C50839-P80
     RDKit          3D

 41 42  0  0  0  0  0  0  0  0999 V2000
   -3.0699  -21.2079   21.0903 C   0  0  0  0  0  0  0  0  0  0  0  0
   -2.2176  -20.3244   22.6674 C   0  0  0  0  0  0  0  0  0  0  0  0
   -1.3310  -18.6247   21.5477 C   0  0  0  0  0  0  0  0  0  0  0  0
   -0.4393  -17.6827   20.0505 N   0  0  0  0  0  0  0  0  0  0  0  0
    0.6941  -16.1958   19.9878 C   0  0  0  0  0  0  0  0  0  0  0  0
    0.8333  -15.6902   21.0146 O   0  0  0  0  0  0  0  0  0  0  0  0
    1.9022  -15.2900   18.6347 C   0  0  0  0  0  0  0  0  0  0  0  0
    2.6874  -15.4834   17.3333 C   0  0  0  0  0  0  0  0  0  0  0  0
    4.0639  -15.1040   17.2685 N   0  0  0  0  0  0  0  0  0  0  0  0
    4.1909  -14.4007   18.3169 C   0  0  0  0  0  0  0  0  0  0  0  0
    2.9260  -14.4359   18.9989 N   0  0  0  0  0  0  0  0  0  0  0  0
   -3.4784  -21.7830   23.1053 C   0  0  0  0  0  0  0  0  0  0  0  0
   -5.2349  -22.0811   23.1111 N   0  0  0  0  0  0  0  0  0  0  0  0
   -6.0961  -23.4956   23.2813 C   0  0  0  0  0  0  0  0  0  0  0  0
   -5.6797  -24.6320   23.3528 O   0  0  0  0  0  0  0  0  0  0  0  0
   -7.9749  -23.3680   23.5387 C   0  0  0  0  0  0  0  0  0  0  0  0
   -8.5187  -22.3295   22.5938 C   0  0  0  0  0  0  0  0  0  0  0  0
   -9.4220  -24.0799   24.4729 N   0  0  0  0  0  0  0  0  0  0  0  0
  -10.8212  -24.1543   24.3613 C   0  0  0  0  0  0  0  0  0  0  0  0
  -11.5936  -23.5283   25.2129 N   0  0  0  0  0  0  0  0  0  0  0  0
  -10.9537  -23.8678   26.3357 C   0  0  0  0  0  0  0  0  0  0  0  0
   -9.6561  -24.1651   26.1487 N   0  0  0  0  0  0  0  0  0  0  0  0
   -2.9455  -20.5893   20.1787 H   0  0  0  0  0  0  0  0  0  0  0  0
   -4.1539  -21.3508   21.1153 H   0  0  0  0  0  0  0  0  0  0  0  0
   -2.5593  -22.1690   20.9074 H   0  0  0  0  0  0  0  0  0  0  0  0
   -1.3664  -20.8826   23.1040 H   0  0  0  0  0  0  0  0  0  0  0  0
   -0.5160  -18.3106   22.1428 H   0  0  0  0  0  0  0  0  0  0  0  0
   -2.1135  -17.9764   21.1374 H   0  0  0  0  0  0  0  0  0  0  0  0
   -0.5745  -18.0142   19.0986 H   0  0  0  0  0  0  0  0  0  0  0  0
    2.3806  -16.0225   16.4223 H   0  0  0  0  0  0  0  0  0  0  0  0
    5.0424  -13.8266   18.6678 H   0  0  0  0  0  0  0  0  0  0  0  0
    3.0185  -14.2717   19.9887 H   0  0  0  0  0  0  0  0  0  0  0  0
   -3.4091  -21.7561   24.1575 H   0  0  0  0  0  0  0  0  0  0  0  0
   -3.0265  -22.7515   22.8408 H   0  0  0  0  0  0  0  0  0  0  0  0
   -5.8770  -21.3062   22.9980 H   0  0  0  0  0  0  0  0  0  0  0  0
   -7.6237  -23.2657   24.5461 H   0  0  0  0  0  0  0  0  0  0  0  0
   -8.4445  -22.7100   21.5697 H   0  0  0  0  0  0  0  0  0  0  0  0
   -7.8867  -21.4411   22.5392 H   0  0  0  0  0  0  0  0  0  0  0  0
   -9.5535  -22.0359   22.7831 H   0  0  0  0  0  0  0  0  0  0  0  0
  -11.0490  -25.2190   24.3650 H   0  0  0  0  0  0  0  0  0  0  0  0
  -11.3717  -23.7887   27.3299 H   0  0  0  0  0  0  0  0  0  0  0  0
  1  2  1  0
  2  3  1  0
  3  4  1  0
  4  5  1  0
  5  6  2  0
  5  7  1  0
  7  8  2  0
  8  9  1  0
  9 10  2  0
 10 11  1  0
  2 12  1  0
 12 13  1  0
 13 14  1  0
 14 15  2  0
 14 16  1  0
 16 17  1  0
 16 18  1  0
 18 19  1  0
 19 20  2  0
 20 21  1  0
 21 22  2  0
 11  7  1  0
 22 18  1  0
  1 23  1  0
  1 24  1  0
  1 25  1  0
  2 26  1  0
  3 27  1  0
  3 28  1  0
  4 29  1  0
  8 30  1  0
 10 31  1  0
 11 32  1  0
 12 33  1  0
 12 34  1  0
 13 35  1  0
 16 36  1  0
 17 37  1  0
 17 38  1  0
 17 39  1  0
 19 40  1  0
 21 41  1  0
M  END
>  <Energy>  (854) 
968.97340773126393

>  <compound_id>  (854) 
50839

>  <target_id>  (854) 
1

>  <reference_id>  (854) 
80

>  <inspiration_ids>  (854) 
[80, 54]

>  <energy_score>  (854) 
963.1317173497273

>  <distance_score>  (854) 
11.39654291191901

>  <path>  (854) 
/opt/xchem-fragalysis-2/maxwin/BulkDock/SCRATCH/511021/C50839-P80/C50839-P80.minimised.mol

>  <scratch_subdir>  (854) 
/opt/xchem-fragalysis-2/maxwin/BulkDock/SCRATCH/511021/C50839-P80

>  <fragmenstein_runtime>  (854) 
32.404918909072876

>  <fragmenstein_outcome>  (854) 
too moved

>  <fragmenstein_mode>  (854) 
expansion

>  <fragmenstein_error>  (854) 


$$$$
C50839-P54
     RDKit          3D

 41 42  0  0  0  0  0  0  0  0999 V2000
   -2.5115  -12.8120   23.4964 C   0  0  0  0  0  0  0  0  0  0  0  0
   -1.6643  -13.7679   22.6552 C   0  0  0  0  0  0  0  0  0  0  0  0
    0.0117  -12.5672   22.0553 C   0  0  0  0  0  0  0  0  0  0  0  0
    1.6654  -11.4451   21.9527 N   0  0  0  0  0  0  0  0  0  0  0  0
    3.3969  -11.7574   22.5882 C   0  0  0  0  0  0  0  0  0  0  0  0
    3.7363  -12.7829   23.0901 O   0  0  0  0  0  0  0  0  0  0  0  0
    4.8212  -10.5136   22.6928 C   0  0  0  0  0  0  0  0  0  0  0  0
    5.7842   -9.8252   21.8604 C   0  0  0  0  0  0  0  0  0  0  0  0
    6.6102   -8.9334   22.5067 N   0  0  0  0  0  0  0  0  0  0  0  0
    6.2827   -9.0571   23.7558 C   0  0  0  0  0  0  0  0  0  0  0  0
    5.2987   -9.9880   23.9179 N   0  0  0  0  0  0  0  0  0  0  0  0
   -2.2519  -15.4991   23.9071 C   0  0  0  0  0  0  0  0  0  0  0  0
   -2.6457  -17.2963   24.5079 N   0  0  0  0  0  0  0  0  0  0  0  0
   -4.1701  -18.4007   24.2080 C   0  0  0  0  0  0  0  0  0  0  0  0
   -5.0513  -18.0616   23.4668 O   0  0  0  0  0  0  0  0  0  0  0  0
   -4.6377  -19.8875   24.9975 C   0  0  0  0  0  0  0  0  0  0  0  0
   -5.3385  -21.7505   24.5221 C   0  0  0  0  0  0  0  0  0  0  0  0
   -5.0996  -20.0024   26.5701 N   0  0  0  0  0  0  0  0  0  0  0  0
   -4.7949  -20.9657   27.4443 C   0  0  0  0  0  0  0  0  0  0  0  0
   -5.8633  -21.3751   28.0794 N   0  0  0  0  0  0  0  0  0  0  0  0
   -6.7810  -20.5757   27.6402 C   0  0  0  0  0  0  0  0  0  0  0  0
   -6.2136  -19.4979   27.1599 N   0  0  0  0  0  0  0  0  0  0  0  0
   -2.5838  -11.7690   23.2241 H   0  0  0  0  0  0  0  0  0  0  0  0
   -2.4024  -12.8207   24.5835 H   0  0  0  0  0  0  0  0  0  0  0  0
   -3.3314  -13.4608   23.2323 H   0  0  0  0  0  0  0  0  0  0  0  0
   -2.1603  -13.8300   21.7262 H   0  0  0  0  0  0  0  0  0  0  0  0
    0.1282  -12.0330   22.9935 H   0  0  0  0  0  0  0  0  0  0  0  0
    0.7281  -13.0890   21.4078 H   0  0  0  0  0  0  0  0  0  0  0  0
    1.5880  -10.4920   21.6501 H   0  0  0  0  0  0  0  0  0  0  0  0
    5.9360   -9.8281   20.7971 H   0  0  0  0  0  0  0  0  0  0  0  0
    6.7100   -8.5110   24.5866 H   0  0  0  0  0  0  0  0  0  0  0  0
    4.8007  -10.1686   24.7743 H   0  0  0  0  0  0  0  0  0  0  0  0
   -2.8196  -15.0394   24.7201 H   0  0  0  0  0  0  0  0  0  0  0  0
   -1.3244  -15.7464   24.5196 H   0  0  0  0  0  0  0  0  0  0  0  0
   -2.0705  -17.7127   25.2158 H   0  0  0  0  0  0  0  0  0  0  0  0
   -5.1158  -19.9250   24.0598 H   0  0  0  0  0  0  0  0  0  0  0  0
   -5.6389  -21.8967   23.4608 H   0  0  0  0  0  0  0  0  0  0  0  0
   -6.1845  -21.9614   25.1720 H   0  0  0  0  0  0  0  0  0  0  0  0
   -4.6721  -22.6171   24.6595 H   0  0  0  0  0  0  0  0  0  0  0  0
   -3.8245  -21.4119   27.5726 H   0  0  0  0  0  0  0  0  0  0  0  0
   -7.8167  -20.7059   27.8447 H   0  0  0  0  0  0  0  0  0  0  0  0
  1  2  1  0
  2  3  1  0
  3  4  1  0
  4  5  1  0
  5  6  2  0
  5  7  1  0
  7  8  2  0
  8  9  1  0
  9 10  2  0
 10 11  1  0
  2 12  1  0
 12 13  1  0
 13 14  1  0
 14 15  2  0
 14 16  1  0
 16 17  1  0
 16 18  1  0
 18 19  1  0
 19 20  2  0
 20 21  1  0
 21 22  2  0
 11  7  1  0
 22 18  1  0
  1 23  1  0
  1 24  1  0
  1 25  1  0
  2 26  1  0
  3 27  1  0
  3 28  1  0
  4 29  1  0
  8 30  1  0
 10 31  1  0
 11 32  1  0
 12 33  1  0
 12 34  1  0
 13 35  1  0
 16 36  1  0
 17 37  1  0
 17 38  1  0
 17 39  1  0
 19 40  1  0
 21 41  1  0
M  END
>  <Energy>  (855) 
1002.9965477065659

>  <compound_id>  (855) 
50839

>  <target_id>  (855) 
1

>  <reference_id>  (855) 
54

>  <inspiration_ids>  (855) 
[80, 54]

>  <energy_score>  (855) 
997.1548573250335

>  <distance_score>  (855) 
9.872745310438996

>  <path>  (855) 
/opt/xchem-fragalysis-2/maxwin/BulkDock/SCRATCH/511021/C50839-P54/C50839-P54.minimised.mol

>  <scratch_subdir>  (855) 
/opt/xchem-fragalysis-2/maxwin/BulkDock/SCRATCH/511021/C50839-P54

>  <fragmenstein_runtime>  (855) 
21.650331020355225

>  <fragmenstein_outcome>  (855) 
too moved

>  <fragmenstein_mode>  (855) 
expansion

>  <fragmenstein_error>  (855) 


$$$$
C50840-P80
     RDKit          3D

 44 45  0  0  0  0  0  0  0  0999 V2000
    3.7569  -13.3504   18.5197 C   0  0  0  0  0  0  0  0  0  0  0  0
    3.9418  -13.2248   20.0203 C   0  0  0  0  0  0  0  0  0  0  0  0
    2.4690  -14.6698   19.9904 C   0  0  0  0  0  0  0  0  0  0  0  0
    1.0197  -15.7546   20.5600 N   0  0  0  0  0  0  0  0  0  0  0  0
    0.3604  -16.9983   19.9085 C   0  0  0  0  0  0  0  0  0  0  0  0
    0.6813  -17.6409   18.9043 O   0  0  0  0  0  0  0  0  0  0  0  0
   -0.9809  -17.4615   20.5149 C   0  0  0  0  0  0  0  0  0  0  0  0
   -2.1780  -17.8263   19.4193 C   0  0  0  0  0  0  0  0  0  0  0  0
   -3.5173  -18.4187   19.3805 N   0  0  0  0  0  0  0  0  0  0  0  0
   -4.6057  -17.9238   18.6942 C   0  0  0  0  0  0  0  0  0  0  0  0
   -5.6801  -18.6448   18.9189 N   0  0  0  0  0  0  0  0  0  0  0  0
   -5.1709  -19.7191   19.5698 C   0  0  0  0  0  0  0  0  0  0  0  0
   -3.8511  -19.6650   19.7690 N   0  0  0  0  0  0  0  0  0  0  0  0
    5.7330  -12.7012   19.8972 C   0  0  0  0  0  0  0  0  0  0  0  0
    6.2083  -11.1069   19.9984 N   0  0  0  0  0  0  0  0  0  0  0  0
    7.7198  -10.2633   19.4702 C   0  0  0  0  0  0  0  0  0  0  0  0
    8.6795  -10.6888   18.8471 O   0  0  0  0  0  0  0  0  0  0  0  0
    8.0027   -8.4423   19.9319 C   0  0  0  0  0  0  0  0  0  0  0  0
    7.1306   -7.2455   19.9659 C   0  0  0  0  0  0  0  0  0  0  0  0
    7.6858   -6.0755   20.4243 N   0  0  0  0  0  0  0  0  0  0  0  0
    8.8480   -6.4118   20.8976 C   0  0  0  0  0  0  0  0  0  0  0  0
    9.1655   -7.7307   20.6471 N   0  0  0  0  0  0  0  0  0  0  0  0
   10.3419   -8.2945   21.3299 C   0  0  0  0  0  0  0  0  0  0  0  0
    2.7716  -13.6719   18.1675 H   0  0  0  0  0  0  0  0  0  0  0  0
    3.8535  -12.3930   18.0178 H   0  0  0  0  0  0  0  0  0  0  0  0
    4.2884  -14.2595   18.1941 H   0  0  0  0  0  0  0  0  0  0  0  0
    3.6932  -12.7582   20.9574 H   0  0  0  0  0  0  0  0  0  0  0  0
    2.6699  -14.6047   21.0292 H   0  0  0  0  0  0  0  0  0  0  0  0
    2.6945  -15.1170   19.0280 H   0  0  0  0  0  0  0  0  0  0  0  0
    0.5450  -15.5416   21.4213 H   0  0  0  0  0  0  0  0  0  0  0  0
   -0.8794  -18.1021   21.3653 H   0  0  0  0  0  0  0  0  0  0  0  0
   -1.2822  -16.4452   20.6667 H   0  0  0  0  0  0  0  0  0  0  0  0
   -2.4416  -16.7989   19.1337 H   0  0  0  0  0  0  0  0  0  0  0  0
   -1.6862  -18.2647   18.5598 H   0  0  0  0  0  0  0  0  0  0  0  0
   -4.5482  -17.0512   18.0636 H   0  0  0  0  0  0  0  0  0  0  0  0
   -5.7584  -20.5668   19.8982 H   0  0  0  0  0  0  0  0  0  0  0  0
    5.9947  -13.2677   19.0839 H   0  0  0  0  0  0  0  0  0  0  0  0
    6.2154  -13.0432   20.7749 H   0  0  0  0  0  0  0  0  0  0  0  0
    5.6648  -10.5254   20.5512 H   0  0  0  0  0  0  0  0  0  0  0  0
    6.1338   -7.1757   19.5614 H   0  0  0  0  0  0  0  0  0  0  0  0
    9.5311   -5.7440   21.4117 H   0  0  0  0  0  0  0  0  0  0  0  0
   10.6863   -9.1687   20.7787 H   0  0  0  0  0  0  0  0  0  0  0  0
   10.0655   -8.5302   22.3620 H   0  0  0  0  0  0  0  0  0  0  0  0
   11.1313   -7.5395   21.3951 H   0  0  0  0  0  0  0  0  0  0  0  0
  1  2  1  0
  2  3  1  0
  3  4  1  0
  4  5  1  0
  5  6  2  0
  5  7  1  0
  7  8  1  0
  8  9  1  0
  9 10  1  0
 10 11  2  0
 11 12  1  0
 12 13  2  0
  2 14  1  0
 14 15  1  0
 15 16  1  0
 16 17  2  0
 16 18  1  0
 18 19  2  0
 19 20  1  0
 20 21  2  0
 21 22  1  0
 22 23  1  0
 13  9  1  0
 22 18  1  0
  1 24  1  0
  1 25  1  0
  1 26  1  0
  2 27  1  0
  3 28  1  0
  3 29  1  0
  4 30  1  0
  7 31  1  0
  7 32  1  0
  8 33  1  0
  8 34  1  0
 10 35  1  0
 12 36  1  0
 14 37  1  0
 14 38  1  0
 15 39  1  0
 19 40  1  0
 21 41  1  0
 23 42  1  0
 23 43  1  0
 23 44  1  0
M  END
>  <Energy>  (856) 
473.17884014381787

>  <compound_id>  (856) 
50840

>  <target_id>  (856) 
1

>  <reference_id>  (856) 
80

>  <inspiration_ids>  (856) 
[80, 54]

>  <energy_score>  (856) 
505.66859465341423

>  <distance_score>  (856) 
11.361458981595582

>  <path>  (856) 
/opt/xchem-fragalysis-2/maxwin/BulkDock/SCRATCH/511021/C50840-P80/C50840-P80.minimised.mol

>  <scratch_subdir>  (856) 
/opt/xchem-fragalysis-2/maxwin/BulkDock/SCRATCH/511021/C50840-P80

>  <fragmenstein_runtime>  (856) 
25.660313606262207

>  <fragmenstein_outcome>  (856) 
too moved

>  <fragmenstein_mode>  (856) 
expansion

>  <fragmenstein_error>  (856) 


$$$$
C50840-P54
     RDKit          3D

 44 45  0  0  0  0  0  0  0  0999 V2000
    1.9730  -13.8675   16.4441 C   0  0  0  0  0  0  0  0  0  0  0  0
    1.6912  -13.3863   18.0111 C   0  0  0  0  0  0  0  0  0  0  0  0
    0.3164  -14.9814   18.5652 C   0  0  0  0  0  0  0  0  0  0  0  0
   -0.2472  -16.3955   19.7164 N   0  0  0  0  0  0  0  0  0  0  0  0
   -1.6361  -17.1146   19.8757 C   0  0  0  0  0  0  0  0  0  0  0  0
   -2.6479  -16.9711   19.2058 O   0  0  0  0  0  0  0  0  0  0  0  0
   -1.8124  -18.3492   21.5727 C   0  0  0  0  0  0  0  0  0  0  0  0
   -2.3397  -19.7377   22.6071 C   0  0  0  0  0  0  0  0  0  0  0  0
   -3.1887  -20.9003   22.3074 N   0  0  0  0  0  0  0  0  0  0  0  0
   -4.2102  -21.3584   23.1057 C   0  0  0  0  0  0  0  0  0  0  0  0
   -4.6201  -22.5389   22.7237 N   0  0  0  0  0  0  0  0  0  0  0  0
   -3.7739  -22.8049   21.6932 C   0  0  0  0  0  0  0  0  0  0  0  0
   -2.8319  -21.8817   21.4585 N   0  0  0  0  0  0  0  0  0  0  0  0
    3.2714  -11.8250   17.9471 C   0  0  0  0  0  0  0  0  0  0  0  0
    5.2227  -11.2895   18.3579 N   0  0  0  0  0  0  0  0  0  0  0  0
    5.9848   -9.9767   19.6391 C   0  0  0  0  0  0  0  0  0  0  0  0
    5.2439   -9.2246   20.2610 O   0  0  0  0  0  0  0  0  0  0  0  0
    7.6736   -9.7980   20.2752 C   0  0  0  0  0  0  0  0  0  0  0  0
    8.8663   -8.9351   20.2020 C   0  0  0  0  0  0  0  0  0  0  0  0
    9.8581   -9.2977   21.0507 N   0  0  0  0  0  0  0  0  0  0  0  0
    9.2226   -9.9948   21.9457 C   0  0  0  0  0  0  0  0  0  0  0  0
    7.8841  -10.0545   21.6561 N   0  0  0  0  0  0  0  0  0  0  0  0
    6.9117  -10.0470   22.7229 C   0  0  0  0  0  0  0  0  0  0  0  0
    1.0807  -13.8216   15.8286 H   0  0  0  0  0  0  0  0  0  0  0  0
    2.3827  -14.8312   16.3611 H   0  0  0  0  0  0  0  0  0  0  0  0
    2.7212  -13.2350   15.9826 H   0  0  0  0  0  0  0  0  0  0  0  0
    2.0696  -13.3873   19.0178 H   0  0  0  0  0  0  0  0  0  0  0  0
   -0.7636  -15.1215   18.3404 H   0  0  0  0  0  0  0  0  0  0  0  0
    0.1610  -15.4429   17.6072 H   0  0  0  0  0  0  0  0  0  0  0  0
    0.3871  -16.7928   20.3476 H   0  0  0  0  0  0  0  0  0  0  0  0
   -1.1041  -18.0287   22.2882 H   0  0  0  0  0  0  0  0  0  0  0  0
   -2.1926  -19.2369   21.0602 H   0  0  0  0  0  0  0  0  0  0  0  0
   -1.4102  -20.2220   22.9295 H   0  0  0  0  0  0  0  0  0  0  0  0
   -2.8472  -19.2738   23.4301 H   0  0  0  0  0  0  0  0  0  0  0  0
   -4.5711  -20.8008   23.9476 H   0  0  0  0  0  0  0  0  0  0  0  0
   -3.8238  -23.7122   21.1049 H   0  0  0  0  0  0  0  0  0  0  0  0
    3.3916  -11.6335   16.8904 H   0  0  0  0  0  0  0  0  0  0  0  0
    2.8898  -11.1291   18.6788 H   0  0  0  0  0  0  0  0  0  0  0  0
    5.9665  -11.7512   17.8864 H   0  0  0  0  0  0  0  0  0  0  0  0
    9.1002   -8.1373   19.5033 H   0  0  0  0  0  0  0  0  0  0  0  0
    9.6428  -10.3814   22.8667 H   0  0  0  0  0  0  0  0  0  0  0  0
    7.1710  -10.8479   23.4158 H   0  0  0  0  0  0  0  0  0  0  0  0
    5.9036  -10.1807   22.3496 H   0  0  0  0  0  0  0  0  0  0  0  0
    6.9775   -9.0820   23.2339 H   0  0  0  0  0  0  0  0  0  0  0  0
  1  2  1  0
  2  3  1  0
  3  4  1  0
  4  5  1  0
  5  6  2  0
  5  7  1  0
  7  8  1  0
  8  9  1  0
  9 10  1  0
 10 11  2  0
 11 12  1  0
 12 13  2  0
  2 14  1  0
 14 15  1  0
 15 16  1  0
 16 17  2  0
 16 18  1  0
 18 19  2  0
 19 20  1  0
 20 21  2  0
 21 22  1  0
 22 23  1  0
 13  9  1  0
 22 18  1  0
  1 24  1  0
  1 25  1  0
  1 26  1  0
  2 27  1  0
  3 28  1  0
  3 29  1  0
  4 30  1  0
  7 31  1  0
  7 32  1  0
  8 33  1  0
  8 34  1  0
 10 35  1  0
 12 36  1  0
 14 37  1  0
 14 38  1  0
 15 39  1  0
 19 40  1  0
 21 41  1  0
 23 42  1  0
 23 43  1  0
 23 44  1  0
M  END
>  <Energy>  (857) 
960.22904882496994

>  <compound_id>  (857) 
50840

>  <target_id>  (857) 
1

>  <reference_id>  (857) 
54

>  <inspiration_ids>  (857) 
[80, 54]

>  <energy_score>  (857) 
992.7188033345886

>  <distance_score>  (857) 
10.780351792657637

>  <path>  (857) 
/opt/xchem-fragalysis-2/maxwin/BulkDock/SCRATCH/511021/C50840-P54/C50840-P54.minimised.mol

>  <scratch_subdir>  (857) 
/opt/xchem-fragalysis-2/maxwin/BulkDock/SCRATCH/511021/C50840-P54

>  <fragmenstein_runtime>  (857) 
31.762861490249634

>  <fragmenstein_outcome>  (857) 
too moved

>  <fragmenstein_mode>  (857) 
expansion

>  <fragmenstein_error>  (857) 


$$$$
C50841-P80
     RDKit          3D

 44 45  0  0  0  0  0  0  0  0999 V2000
   -1.3647  -12.9620   20.9244 C   0  0  0  0  0  0  0  0  0  0  0  0
   -0.0029  -14.1736   22.1181 C   0  0  0  0  0  0  0  0  0  0  0  0
    1.8750  -14.5332   20.9430 C   0  0  0  0  0  0  0  0  0  0  0  0
    3.4461  -13.4580   20.6136 N   0  0  0  0  0  0  0  0  0  0  0  0
    4.0883  -12.4153   21.4012 C   0  0  0  0  0  0  0  0  0  0  0  0
    3.7420  -11.8882   22.4394 O   0  0  0  0  0  0  0  0  0  0  0  0
    5.7447  -11.9054   20.8127 C   0  0  0  0  0  0  0  0  0  0  0  0
    6.3038  -11.3564   19.6849 C   0  0  0  0  0  0  0  0  0  0  0  0
    7.6610  -10.8931   19.7765 N   0  0  0  0  0  0  0  0  0  0  0  0
    8.1473  -11.4550   20.8315 C   0  0  0  0  0  0  0  0  0  0  0  0
    7.0849  -11.7027   21.6636 N   0  0  0  0  0  0  0  0  0  0  0  0
    7.3083  -11.3887   23.1322 C   0  0  0  0  0  0  0  0  0  0  0  0
   -1.3190  -14.8849   23.3741 C   0  0  0  0  0  0  0  0  0  0  0  0
   -3.1372  -15.1101   23.7361 N   0  0  0  0  0  0  0  0  0  0  0  0
   -3.7912  -15.7373   24.7705 C   0  0  0  0  0  0  0  0  0  0  0  0
   -3.3073  -16.3300   25.6668 O   0  0  0  0  0  0  0  0  0  0  0  0
   -5.9393  -15.7404   24.5963 C   0  0  0  0  0  0  0  0  0  0  0  0
   -7.1666  -14.3461   24.3275 C   0  0  0  0  0  0  0  0  0  0  0  0
   -7.1968  -16.0799   25.8728 N   0  0  0  0  0  0  0  0  0  0  0  0
   -8.5007  -16.4267   25.5387 C   0  0  0  0  0  0  0  0  0  0  0  0
   -9.2632  -16.4334   26.6058 N   0  0  0  0  0  0  0  0  0  0  0  0
   -8.4225  -16.0086   27.5799 C   0  0  0  0  0  0  0  0  0  0  0  0
   -7.2292  -15.6076   27.1476 N   0  0  0  0  0  0  0  0  0  0  0  0
   -2.0889  -13.7094   20.6526 H   0  0  0  0  0  0  0  0  0  0  0  0
   -1.1589  -12.1851   20.1153 H   0  0  0  0  0  0  0  0  0  0  0  0
   -1.7941  -12.0374   21.3793 H   0  0  0  0  0  0  0  0  0  0  0  0
    0.0265  -15.3488   21.9092 H   0  0  0  0  0  0  0  0  0  0  0  0
    2.8033  -14.5475   21.7043 H   0  0  0  0  0  0  0  0  0  0  0  0
    1.8530  -15.3369   20.2763 H   0  0  0  0  0  0  0  0  0  0  0  0
    4.0616  -13.7166   19.8437 H   0  0  0  0  0  0  0  0  0  0  0  0
    5.8202  -11.1692   18.7605 H   0  0  0  0  0  0  0  0  0  0  0  0
    9.1820  -11.4767   21.1434 H   0  0  0  0  0  0  0  0  0  0  0  0
    6.3906  -11.0181   23.5806 H   0  0  0  0  0  0  0  0  0  0  0  0
    7.7161  -12.2161   23.7098 H   0  0  0  0  0  0  0  0  0  0  0  0
    8.0963  -10.6288   23.2187 H   0  0  0  0  0  0  0  0  0  0  0  0
   -0.9436  -14.4081   24.2767 H   0  0  0  0  0  0  0  0  0  0  0  0
   -1.7396  -14.7348   22.4253 H   0  0  0  0  0  0  0  0  0  0  0  0
   -3.8078  -14.6385   23.1998 H   0  0  0  0  0  0  0  0  0  0  0  0
   -6.3926  -16.6415   24.1035 H   0  0  0  0  0  0  0  0  0  0  0  0
   -8.0730  -14.7171   23.8384 H   0  0  0  0  0  0  0  0  0  0  0  0
   -7.4986  -13.9017   25.2822 H   0  0  0  0  0  0  0  0  0  0  0  0
   -6.7161  -13.4792   23.8183 H   0  0  0  0  0  0  0  0  0  0  0  0
   -8.7991  -16.6739   24.5294 H   0  0  0  0  0  0  0  0  0  0  0  0
   -8.6987  -15.9284   28.6215 H   0  0  0  0  0  0  0  0  0  0  0  0
  1  2  1  0
  2  3  1  0
  3  4  1  0
  4  5  1  0
  5  6  2  0
  5  7  1  0
  7  8  2  0
  8  9  1  0
  9 10  2  0
 10 11  1  0
 11 12  1  0
  2 13  1  0
 13 14  1  0
 14 15  1  0
 15 16  2  0
 15 17  1  0
 17 18  1  0
 17 19  1  0
 19 20  1  0
 20 21  2  0
 21 22  1  0
 22 23  2  0
 11  7  1  0
 23 19  1  0
  1 24  1  0
  1 25  1  0
  1 26  1  0
  2 27  1  0
  3 28  1  0
  3 29  1  0
  4 30  1  0
  8 31  1  0
 10 32  1  0
 12 33  1  0
 12 34  1  0
 12 35  1  0
 13 36  1  0
 13 37  1  0
 14 38  1  0
 17 39  1  0
 18 40  1  0
 18 41  1  0
 18 42  1  0
 20 43  1  0
 22 44  1  0
M  END
>  <Energy>  (858) 
863.71123524987274

>  <compound_id>  (858) 
50841

>  <target_id>  (858) 
1

>  <reference_id>  (858) 
80

>  <inspiration_ids>  (858) 
[80, 54]

>  <energy_score>  (858) 
850.5033628085191

>  <distance_score>  (858) 
10.672843692111497

>  <path>  (858) 
/opt/xchem-fragalysis-2/maxwin/BulkDock/SCRATCH/511021/C50841-P80/C50841-P80.minimised.mol

>  <scratch_subdir>  (858) 
/opt/xchem-fragalysis-2/maxwin/BulkDock/SCRATCH/511021/C50841-P80

>  <fragmenstein_runtime>  (858) 
25.233983755111694

>  <fragmenstein_outcome>  (858) 
too moved

>  <fragmenstein_mode>  (858) 
expansion

>  <fragmenstein_error>  (858) 


$$$$
C50841-P54
     RDKit          3D

 44 45  0  0  0  0  0  0  0  0999 V2000
    4.2897  -11.9704   23.9415 C   0  0  0  0  0  0  0  0  0  0  0  0
    3.6236  -13.0169   22.9914 C   0  0  0  0  0  0  0  0  0  0  0  0
    2.7544  -12.1425   21.2122 C   0  0  0  0  0  0  0  0  0  0  0  0
    2.8366  -11.3812   19.2725 N   0  0  0  0  0  0  0  0  0  0  0  0
    4.3073  -11.2269   18.0147 C   0  0  0  0  0  0  0  0  0  0  0  0
    5.3747  -11.5229   18.3868 O   0  0  0  0  0  0  0  0  0  0  0  0
    4.3987  -10.9080   16.5436 C   0  0  0  0  0  0  0  0  0  0  0  0
    4.8741  -10.0276   15.4085 C   0  0  0  0  0  0  0  0  0  0  0  0
    5.9017   -9.1292   15.6141 N   0  0  0  0  0  0  0  0  0  0  0  0
    6.6719   -9.9092   16.2927 C   0  0  0  0  0  0  0  0  0  0  0  0
    6.0294  -11.1227   16.2777 N   0  0  0  0  0  0  0  0  0  0  0  0
    6.8121  -12.3493   16.3220 C   0  0  0  0  0  0  0  0  0  0  0  0
    3.0129  -14.5278   24.4952 C   0  0  0  0  0  0  0  0  0  0  0  0
    1.4045  -15.1116   25.5139 N   0  0  0  0  0  0  0  0  0  0  0  0
   -0.0240  -16.2469   25.0475 C   0  0  0  0  0  0  0  0  0  0  0  0
   -0.0762  -16.6458   23.9467 O   0  0  0  0  0  0  0  0  0  0  0  0
   -1.3721  -17.0568   26.0672 C   0  0  0  0  0  0  0  0  0  0  0  0
   -0.8606  -18.2472   27.4647 C   0  0  0  0  0  0  0  0  0  0  0  0
   -2.8205  -18.0050   25.8292 N   0  0  0  0  0  0  0  0  0  0  0  0
   -3.7536  -18.3444   26.8587 C   0  0  0  0  0  0  0  0  0  0  0  0
   -4.6120  -19.2723   26.4983 N   0  0  0  0  0  0  0  0  0  0  0  0
   -4.2366  -19.5370   25.2300 C   0  0  0  0  0  0  0  0  0  0  0  0
   -3.1295  -18.9116   24.8065 N   0  0  0  0  0  0  0  0  0  0  0  0
    5.0477  -12.3503   24.6269 H   0  0  0  0  0  0  0  0  0  0  0  0
    4.8009  -11.1741   23.4018 H   0  0  0  0  0  0  0  0  0  0  0  0
    3.5463  -11.6085   24.6551 H   0  0  0  0  0  0  0  0  0  0  0  0
    4.3973  -13.5852   22.4536 H   0  0  0  0  0  0  0  0  0  0  0  0
    2.3579  -13.0748   20.8871 H   0  0  0  0  0  0  0  0  0  0  0  0
    1.9674  -11.4723   21.5586 H   0  0  0  0  0  0  0  0  0  0  0  0
    2.0004  -11.1839   18.8069 H   0  0  0  0  0  0  0  0  0  0  0  0
    4.2833   -9.8801   14.5027 H   0  0  0  0  0  0  0  0  0  0  0  0
    7.6859   -9.7431   16.6290 H   0  0  0  0  0  0  0  0  0  0  0  0
    6.1826  -13.2343   16.3690 H   0  0  0  0  0  0  0  0  0  0  0  0
    7.3962  -12.3891   15.3967 H   0  0  0  0  0  0  0  0  0  0  0  0
    7.5059  -12.2969   17.1647 H   0  0  0  0  0  0  0  0  0  0  0  0
    3.5714  -14.2620   25.4027 H   0  0  0  0  0  0  0  0  0  0  0  0
    2.8731  -15.5168   23.9721 H   0  0  0  0  0  0  0  0  0  0  0  0
    1.3571  -14.9224   26.5086 H   0  0  0  0  0  0  0  0  0  0  0  0
   -2.0026  -16.1561   26.1122 H   0  0  0  0  0  0  0  0  0  0  0  0
   -0.3613  -17.7332   28.3150 H   0  0  0  0  0  0  0  0  0  0  0  0
   -0.1513  -19.0314   27.2568 H   0  0  0  0  0  0  0  0  0  0  0  0
   -1.7187  -18.7619   27.9078 H   0  0  0  0  0  0  0  0  0  0  0  0
   -3.7421  -17.9120   27.8428 H   0  0  0  0  0  0  0  0  0  0  0  0
   -4.7457  -20.2511   24.5946 H   0  0  0  0  0  0  0  0  0  0  0  0
  1  2  1  0
  2  3  1  0
  3  4  1  0
  4  5  1  0
  5  6  2  0
  5  7  1  0
  7  8  2  0
  8  9  1  0
  9 10  2  0
 10 11  1  0
 11 12  1  0
  2 13  1  0
 13 14  1  0
 14 15  1  0
 15 16  2  0
 15 17  1  0
 17 18  1  0
 17 19  1  0
 19 20  1  0
 20 21  2  0
 21 22  1  0
 22 23  2  0
 11  7  1  0
 23 19  1  0
  1 24  1  0
  1 25  1  0
  1 26  1  0
  2 27  1  0
  3 28  1  0
  3 29  1  0
  4 30  1  0
  8 31  1  0
 10 32  1  0
 12 33  1  0
 12 34  1  0
 12 35  1  0
 13 36  1  0
 13 37  1  0
 14 38  1  0
 17 39  1  0
 18 40  1  0
 18 41  1  0
 18 42  1  0
 20 43  1  0
 22 44  1  0
M  END
>  <Energy>  (859) 
954.07774974483243

>  <compound_id>  (859) 
50841

>  <target_id>  (859) 
1

>  <reference_id>  (859) 
54

>  <inspiration_ids>  (859) 
[80, 54]

>  <energy_score>  (859) 
940.8698773035001

>  <distance_score>  (859) 
10.794038457478802

>  <path>  (859) 
/opt/xchem-fragalysis-2/maxwin/BulkDock/SCRATCH/511021/C50841-P54/C50841-P54.minimised.mol

>  <scratch_subdir>  (859) 
/opt/xchem-fragalysis-2/maxwin/BulkDock/SCRATCH/511021/C50841-P54

>  <fragmenstein_runtime>  (859) 
20.59182858467102

>  <fragmenstein_outcome>  (859) 
too moved

>  <fragmenstein_mode>  (859) 
expansion

>  <fragmenstein_error>  (859) 


$$$$
C28783-P80
     RDKit          3D

 43 44  0  0  0  0  0  0  0  0999 V2000
    6.6074  -12.3677   20.7036 C   0  0  0  0  0  0  0  0  0  0  0  0
    5.7929  -11.7084   19.7382 C   0  0  0  0  0  0  0  0  0  0  0  0
    4.4021  -12.7071   20.5335 C   0  0  0  0  0  0  0  0  0  0  0  0
    3.0464  -13.7798   20.7669 N   0  0  0  0  0  0  0  0  0  0  0  0
    2.2464  -14.8434   19.6733 C   0  0  0  0  0  0  0  0  0  0  0  0
    2.4787  -14.9462   18.4767 O   0  0  0  0  0  0  0  0  0  0  0  0
    0.5875  -16.0380   20.1859 C   0  0  0  0  0  0  0  0  0  0  0  0
   -1.3792  -15.9831   19.7989 C   0  0  0  0  0  0  0  0  0  0  0  0
   -2.4476  -17.1315   19.4497 C   0  0  0  0  0  0  0  0  0  0  0  0
   -2.2447  -18.3553   19.8947 C   0  0  0  0  0  0  0  0  0  0  0  0
   -2.9619  -19.5245   19.6629 N   0  0  0  0  0  0  0  0  0  0  0  0
   -4.1255  -19.4315   19.0593 C   0  0  0  0  0  0  0  0  0  0  0  0
   -4.5397  -18.2841   18.5898 N   0  0  0  0  0  0  0  0  0  0  0  0
   -3.6568  -17.2381   18.7366 C   0  0  0  0  0  0  0  0  0  0  0  0
    7.0112  -10.2565   19.4962 C   0  0  0  0  0  0  0  0  0  0  0  0
    6.8537   -8.1637   20.0317 N   0  0  0  0  0  0  0  0  0  0  0  0
    8.1339   -6.9717   20.4701 C   0  0  0  0  0  0  0  0  0  0  0  0
    9.2871   -7.2288   20.4003 O   0  0  0  0  0  0  0  0  0  0  0  0
    7.9813   -5.7068   21.0570 C   0  0  0  0  0  0  0  0  0  0  0  0
    7.8738   -5.7539   22.4987 C   0  0  0  0  0  0  0  0  0  0  0  0
    8.6162   -4.8402   23.1729 N   0  0  0  0  0  0  0  0  0  0  0  0
    9.4758   -4.4948   22.2724 C   0  0  0  0  0  0  0  0  0  0  0  0
   11.1318   -4.2567   22.5675 Cl  0  0  0  0  0  0  0  0  0  0  0  0
    9.0440   -4.7652   21.0055 N   0  0  0  0  0  0  0  0  0  0  0  0
    6.1871  -13.3059   20.7814 H   0  0  0  0  0  0  0  0  0  0  0  0
    7.6688  -12.5696   20.6571 H   0  0  0  0  0  0  0  0  0  0  0  0
    6.3901  -11.6932   21.5046 H   0  0  0  0  0  0  0  0  0  0  0  0
    5.8354  -12.1979   18.8279 H   0  0  0  0  0  0  0  0  0  0  0  0
    4.1022  -12.7541   19.4925 H   0  0  0  0  0  0  0  0  0  0  0  0
    4.1869  -12.0820   21.3788 H   0  0  0  0  0  0  0  0  0  0  0  0
    2.7206  -13.9587   21.6941 H   0  0  0  0  0  0  0  0  0  0  0  0
    0.4302  -16.0903   21.2434 H   0  0  0  0  0  0  0  0  0  0  0  0
    0.6273  -17.0386   19.8096 H   0  0  0  0  0  0  0  0  0  0  0  0
   -1.5203  -15.2750   18.9782 H   0  0  0  0  0  0  0  0  0  0  0  0
   -1.8989  -15.3766   20.5304 H   0  0  0  0  0  0  0  0  0  0  0  0
   -1.4551  -18.3875   20.6350 H   0  0  0  0  0  0  0  0  0  0  0  0
   -4.7397  -20.3126   18.9495 H   0  0  0  0  0  0  0  0  0  0  0  0
   -4.0378  -16.4904   18.0588 H   0  0  0  0  0  0  0  0  0  0  0  0
    7.8860  -10.6395   19.8335 H   0  0  0  0  0  0  0  0  0  0  0  0
    7.5376  -10.3856   18.5103 H   0  0  0  0  0  0  0  0  0  0  0  0
    5.9701   -7.7819   20.2423 H   0  0  0  0  0  0  0  0  0  0  0  0
    7.3006   -6.4846   23.0666 H   0  0  0  0  0  0  0  0  0  0  0  0
    9.7507   -4.8136   20.2860 H   0  0  0  0  0  0  0  0  0  0  0  0
  1  2  1  0
  2  3  1  0
  3  4  1  0
  4  5  1  0
  5  6  2  0
  5  7  1  0
  7  8  1  0
  8  9  1  0
  9 10  2  0
 10 11  1  0
 11 12  2  0
 12 13  1  0
 13 14  2  0
  2 15  1  0
 15 16  1  0
 16 17  1  0
 17 18  2  0
 17 19  1  0
 19 20  2  0
 20 21  1  0
 21 22  2  0
 22 23  1  0
 22 24  1  0
 14  9  1  0
 24 19  1  0
  1 25  1  0
  1 26  1  0
  1 27  1  0
  2 28  1  0
  3 29  1  0
  3 30  1  0
  4 31  1  0
  7 32  1  0
  7 33  1  0
  8 34  1  0
  8 35  1  0
 10 36  1  0
 12 37  1  0
 14 38  1  0
 15 39  1  0
 15 40  1  0
 16 41  1  0
 20 42  1  0
 24 43  1  0
M  END
>  <Energy>  (860) 
708.50324284056967

>  <compound_id>  (860) 
28783

>  <target_id>  (860) 
1

>  <reference_id>  (860) 
80

>  <inspiration_ids>  (860) 
[80, 54]

>  <energy_score>  (860) 
738.620713446624

>  <distance_score>  (860) 
11.773364569947462

>  <path>  (860) 
/opt/xchem-fragalysis-2/maxwin/BulkDock/SCRATCH/511021/C28783-P80/C28783-P80.minimised.mol

>  <scratch_subdir>  (860) 
/opt/xchem-fragalysis-2/maxwin/BulkDock/SCRATCH/511021/C28783-P80

>  <fragmenstein_runtime>  (860) 
28.61063051223755

>  <fragmenstein_outcome>  (860) 
too moved

>  <fragmenstein_mode>  (860) 
expansion

>  <fragmenstein_error>  (860) 


$$$$
C28783-P54
     RDKit          3D

 43 44  0  0  0  0  0  0  0  0999 V2000
    3.4127  -16.5829   23.9088 C   0  0  0  0  0  0  0  0  0  0  0  0
    2.5999  -15.7637   23.0055 C   0  0  0  0  0  0  0  0  0  0  0  0
    0.6402  -16.7039   23.4156 C   0  0  0  0  0  0  0  0  0  0  0  0
   -1.2324  -16.7215   24.2843 N   0  0  0  0  0  0  0  0  0  0  0  0
   -2.6551  -18.0235   24.1827 C   0  0  0  0  0  0  0  0  0  0  0  0
   -2.4174  -18.9224   23.3875 O   0  0  0  0  0  0  0  0  0  0  0  0
   -4.3858  -18.4978   25.1264 C   0  0  0  0  0  0  0  0  0  0  0  0
   -4.7246  -20.2845   25.7889 C   0  0  0  0  0  0  0  0  0  0  0  0
   -5.3518  -20.5914   27.1929 C   0  0  0  0  0  0  0  0  0  0  0  0
   -4.7965  -20.9962   28.4358 C   0  0  0  0  0  0  0  0  0  0  0  0
   -5.4263  -21.7584   29.2683 N   0  0  0  0  0  0  0  0  0  0  0  0
   -6.7015  -21.9350   29.0508 C   0  0  0  0  0  0  0  0  0  0  0  0
   -7.3878  -21.2016   28.1730 N   0  0  0  0  0  0  0  0  0  0  0  0
   -6.6688  -20.7686   27.2061 C   0  0  0  0  0  0  0  0  0  0  0  0
    3.8096  -14.1555   22.0898 C   0  0  0  0  0  0  0  0  0  0  0  0
    5.1122  -12.9179   22.8035 N   0  0  0  0  0  0  0  0  0  0  0  0
    5.2244  -11.0943   22.7783 C   0  0  0  0  0  0  0  0  0  0  0  0
    4.4756  -10.3089   22.3861 O   0  0  0  0  0  0  0  0  0  0  0  0
    6.4980  -10.4126   23.2094 C   0  0  0  0  0  0  0  0  0  0  0  0
    7.6437  -10.2518   22.4095 C   0  0  0  0  0  0  0  0  0  0  0  0
    8.3503   -9.1009   22.6597 N   0  0  0  0  0  0  0  0  0  0  0  0
    7.6234   -8.5001   23.5583 C   0  0  0  0  0  0  0  0  0  0  0  0
    7.8744   -6.9740   24.2470 Cl  0  0  0  0  0  0  0  0  0  0  0  0
    6.5158   -9.2069   23.9133 N   0  0  0  0  0  0  0  0  0  0  0  0
    3.1804  -17.5388   23.5883 H   0  0  0  0  0  0  0  0  0  0  0  0
    3.1406  -16.2214   24.8877 H   0  0  0  0  0  0  0  0  0  0  0  0
    4.4022  -17.0083   23.9713 H   0  0  0  0  0  0  0  0  0  0  0  0
    2.9274  -16.3264   22.1505 H   0  0  0  0  0  0  0  0  0  0  0  0
    0.7142  -17.7091   23.0166 H   0  0  0  0  0  0  0  0  0  0  0  0
    0.4866  -16.6919   24.5611 H   0  0  0  0  0  0  0  0  0  0  0  0
   -1.4689  -16.0677   25.0198 H   0  0  0  0  0  0  0  0  0  0  0  0
   -4.7916  -18.6825   24.1570 H   0  0  0  0  0  0  0  0  0  0  0  0
   -5.1864  -17.9487   25.6559 H   0  0  0  0  0  0  0  0  0  0  0  0
   -4.1989  -21.2394   25.8239 H   0  0  0  0  0  0  0  0  0  0  0  0
   -5.0461  -20.7682   24.8644 H   0  0  0  0  0  0  0  0  0  0  0  0
   -3.7816  -20.9964   28.8443 H   0  0  0  0  0  0  0  0  0  0  0  0
   -7.2926  -22.6434   29.6284 H   0  0  0  0  0  0  0  0  0  0  0  0
   -7.1008  -21.1202   26.2936 H   0  0  0  0  0  0  0  0  0  0  0  0
    4.6408  -14.6522   21.7491 H   0  0  0  0  0  0  0  0  0  0  0  0
    3.2824  -13.5845   21.3126 H   0  0  0  0  0  0  0  0  0  0  0  0
    6.0040  -13.3422   23.1477 H   0  0  0  0  0  0  0  0  0  0  0  0
    7.9540  -10.8892   21.5948 H   0  0  0  0  0  0  0  0  0  0  0  0
    5.7463   -8.8379   24.4529 H   0  0  0  0  0  0  0  0  0  0  0  0
  1  2  1  0
  2  3  1  0
  3  4  1  0
  4  5  1  0
  5  6  2  0
  5  7  1  0
  7  8  1  0
  8  9  1  0
  9 10  2  0
 10 11  1  0
 11 12  2  0
 12 13  1  0
 13 14  2  0
  2 15  1  0
 15 16  1  0
 16 17  1  0
 17 18  2  0
 17 19  1  0
 19 20  2  0
 20 21  1  0
 21 22  2  0
 22 23  1  0
 22 24  1  0
 14  9  1  0
 24 19  1  0
  1 25  1  0
  1 26  1  0
  1 27  1  0
  2 28  1  0
  3 29  1  0
  3 30  1  0
  4 31  1  0
  7 32  1  0
  7 33  1  0
  8 34  1  0
  8 35  1  0
 10 36  1  0
 12 37  1  0
 14 38  1  0
 15 39  1  0
 15 40  1  0
 16 41  1  0
 20 42  1  0
 24 43  1  0
M  END
>  <Energy>  (861) 
922.7108415748437

>  <compound_id>  (861) 
28783

>  <target_id>  (861) 
1

>  <reference_id>  (861) 
54

>  <inspiration_ids>  (861) 
[80, 54]

>  <energy_score>  (861) 
952.8283121809292

>  <distance_score>  (861) 
9.14321750093901

>  <path>  (861) 
/opt/xchem-fragalysis-2/maxwin/BulkDock/SCRATCH/511021/C28783-P54/C28783-P54.minimised.mol

>  <scratch_subdir>  (861) 
/opt/xchem-fragalysis-2/maxwin/BulkDock/SCRATCH/511021/C28783-P54

>  <fragmenstein_runtime>  (861) 
19.282072067260742

>  <fragmenstein_outcome>  (861) 
too moved

>  <fragmenstein_mode>  (861) 
expansion

>  <fragmenstein_error>  (861) 


$$$$
C50842-P80
     RDKit          3D

 26 27  0  0  0  0  0  0  0  0999 V2000
   -1.4734  -19.2428   17.3075 N   0  0  0  0  0  0  0  0  0  0  0  0
   -1.2286  -18.4423   18.1301 C   0  0  0  0  0  0  0  0  0  0  0  0
   -1.1015  -17.4460   19.4113 C   0  0  0  0  0  0  0  0  0  0  0  0
    0.5790  -16.3031   19.7182 C   0  0  0  0  0  0  0  0  0  0  0  0
    1.9864  -15.1292   18.7102 C   0  0  0  0  0  0  0  0  0  0  0  0
    3.3214  -14.7553   19.0921 C   0  0  0  0  0  0  0  0  0  0  0  0
    3.9813  -14.2264   18.0024 N   0  0  0  0  0  0  0  0  0  0  0  0
    3.0524  -14.0450   17.0417 C   0  0  0  0  0  0  0  0  0  0  0  0
    1.8490  -14.3123   17.5220 N   0  0  0  0  0  0  0  0  0  0  0  0
   -2.2019  -17.8815   20.2828 N   0  0  0  0  0  0  0  0  0  0  0  0
   -3.3837  -18.5322   19.5268 C   0  0  0  0  0  0  0  0  0  0  0  0
   -3.4677  -19.9312   19.4133 C   0  0  0  0  0  0  0  0  0  0  0  0
   -4.7138  -20.5210   19.2660 C   0  0  0  0  0  0  0  0  0  0  0  0
   -5.8502  -19.8253   19.2018 N   0  0  0  0  0  0  0  0  0  0  0  0
   -5.6754  -18.5023   19.2394 C   0  0  0  0  0  0  0  0  0  0  0  0
   -4.5020  -17.8200   19.3614 N   0  0  0  0  0  0  0  0  0  0  0  0
   -1.7581  -16.5882   19.0907 H   0  0  0  0  0  0  0  0  0  0  0  0
   -0.2821  -15.6608   19.6981 H   0  0  0  0  0  0  0  0  0  0  0  0
    0.7131  -16.2674   20.7743 H   0  0  0  0  0  0  0  0  0  0  0  0
    3.8710  -14.8072   20.0081 H   0  0  0  0  0  0  0  0  0  0  0  0
    4.9595  -13.9726   17.9541 H   0  0  0  0  0  0  0  0  0  0  0  0
    3.2686  -13.6414   16.0599 H   0  0  0  0  0  0  0  0  0  0  0  0
   -2.6369  -17.0099   20.6183 H   0  0  0  0  0  0  0  0  0  0  0  0
   -2.6261  -20.5920   19.5157 H   0  0  0  0  0  0  0  0  0  0  0  0
   -4.8179  -21.6004   19.2204 H   0  0  0  0  0  0  0  0  0  0  0  0
   -6.5779  -17.9063   19.1750 H   0  0  0  0  0  0  0  0  0  0  0  0
  1  2  3  0
  2  3  1  0
  3  4  1  0
  4  5  1  0
  5  6  2  0
  6  7  1  0
  7  8  1  0
  8  9  2  0
  3 10  1  0
 10 11  1  0
 11 12  2  0
 12 13  1  0
 13 14  2  0
 14 15  1  0
 15 16  2  0
  9  5  1  0
 16 11  1  0
  3 17  1  0
  4 18  1  0
  4 19  1  0
  6 20  1  0
  7 21  1  0
  8 22  1  0
 10 23  1  0
 12 24  1  0
 13 25  1  0
 15 26  1  0
M  END
>  <Energy>  (862) 
264.90562082057096

>  <compound_id>  (862) 
50842

>  <target_id>  (862) 
1

>  <reference_id>  (862) 
80

>  <inspiration_ids>  (862) 
[80, 54]

>  <energy_score>  (862) 
271.4908870241475

>  <distance_score>  (862) 
14.413425448899316

>  <path>  (862) 
/opt/xchem-fragalysis-2/maxwin/BulkDock/SCRATCH/511021/C50842-P80/C50842-P80.minimised.mol

>  <scratch_subdir>  (862) 
/opt/xchem-fragalysis-2/maxwin/BulkDock/SCRATCH/511021/C50842-P80

>  <fragmenstein_runtime>  (862) 
12.0198233127594

>  <fragmenstein_outcome>  (862) 
too moved

>  <fragmenstein_mode>  (862) 
expansion

>  <fragmenstein_error>  (862) 


$$$$
C50842-P54
     RDKit          3D

 26 27  0  0  0  0  0  0  0  0999 V2000
    3.7645  -12.9139   21.2363 N   0  0  0  0  0  0  0  0  0  0  0  0
    2.7095  -12.4207   21.2873 C   0  0  0  0  0  0  0  0  0  0  0  0
    1.3749  -11.6161   21.4820 C   0  0  0  0  0  0  0  0  0  0  0  0
    2.0237  -10.4740   20.3653 C   0  0  0  0  0  0  0  0  0  0  0  0
    3.4872  -10.2071   19.8573 C   0  0  0  0  0  0  0  0  0  0  0  0
    4.1502  -10.6838   18.7432 C   0  0  0  0  0  0  0  0  0  0  0  0
    5.3355  -10.0008   18.6689 N   0  0  0  0  0  0  0  0  0  0  0  0
    5.3575   -9.1030   19.6937 C   0  0  0  0  0  0  0  0  0  0  0  0
    4.2532   -9.1665   20.4035 N   0  0  0  0  0  0  0  0  0  0  0  0
   -0.3556  -12.5640   21.4611 N   0  0  0  0  0  0  0  0  0  0  0  0
   -1.6658  -13.1142   22.5927 C   0  0  0  0  0  0  0  0  0  0  0  0
   -2.2671  -12.4644   23.6501 C   0  0  0  0  0  0  0  0  0  0  0  0
   -2.3506  -13.1316   25.1697 C   0  0  0  0  0  0  0  0  0  0  0  0
   -2.5403  -14.4899   25.4553 N   0  0  0  0  0  0  0  0  0  0  0  0
   -2.7871  -15.0274   24.2171 C   0  0  0  0  0  0  0  0  0  0  0  0
   -2.5813  -14.1772   22.7772 N   0  0  0  0  0  0  0  0  0  0  0  0
    1.2391  -11.1089   22.4222 H   0  0  0  0  0  0  0  0  0  0  0  0
    1.3649  -10.2600   19.5454 H   0  0  0  0  0  0  0  0  0  0  0  0
    2.0668   -9.6662   21.0365 H   0  0  0  0  0  0  0  0  0  0  0  0
    3.8799  -11.4312   18.0110 H   0  0  0  0  0  0  0  0  0  0  0  0
    6.0633  -10.1583   17.9865 H   0  0  0  0  0  0  0  0  0  0  0  0
    6.1923   -8.4441   19.8811 H   0  0  0  0  0  0  0  0  0  0  0  0
   -0.6992  -13.0286   20.5894 H   0  0  0  0  0  0  0  0  0  0  0  0
   -2.6212  -11.4731   23.4201 H   0  0  0  0  0  0  0  0  0  0  0  0
   -2.0488  -12.5951   26.0603 H   0  0  0  0  0  0  0  0  0  0  0  0
   -2.4868  -16.0696   24.1925 H   0  0  0  0  0  0  0  0  0  0  0  0
  1  2  3  0
  2  3  1  0
  3  4  1  0
  4  5  1  0
  5  6  2  0
  6  7  1  0
  7  8  1  0
  8  9  2  0
  3 10  1  0
 10 11  1  0
 11 12  2  0
 12 13  1  0
 13 14  2  0
 14 15  1  0
 15 16  2  0
  9  5  1  0
 16 11  1  0
  3 17  1  0
  4 18  1  0
  4 19  1  0
  6 20  1  0
  7 21  1  0
  8 22  1  0
 10 23  1  0
 12 24  1  0
 13 25  1  0
 15 26  1  0
M  END
>  <Energy>  (863) 
364.26977876514349

>  <compound_id>  (863) 
50842

>  <target_id>  (863) 
1

>  <reference_id>  (863) 
54

>  <inspiration_ids>  (863) 
[80, 54]

>  <energy_score>  (863) 
370.85504496871647

>  <distance_score>  (863) 
13.428603896968767

>  <path>  (863) 
/opt/xchem-fragalysis-2/maxwin/BulkDock/SCRATCH/511021/C50842-P54/C50842-P54.minimised.mol

>  <scratch_subdir>  (863) 
/opt/xchem-fragalysis-2/maxwin/BulkDock/SCRATCH/511021/C50842-P54

>  <fragmenstein_runtime>  (863) 
7.222161054611206

>  <fragmenstein_outcome>  (863) 
too moved

>  <fragmenstein_mode>  (863) 
expansion

>  <fragmenstein_error>  (863) 


$$$$
C28784-P80
     RDKit          3D

 43 44  0  0  0  0  0  0  0  0999 V2000
    4.0648   -3.4242   14.8961 C   0  0  0  0  0  0  0  0  0  0  0  0
    3.7503   -4.8089   15.3250 C   0  0  0  0  0  0  0  0  0  0  0  0
    2.5703   -5.3611   15.2187 N   0  0  0  0  0  0  0  0  0  0  0  0
    2.6862   -6.6305   15.7431 C   0  0  0  0  0  0  0  0  0  0  0  0
    1.4040   -7.3794   15.9696 C   0  0  0  0  0  0  0  0  0  0  0  0
    1.1150   -8.2595   17.4985 C   0  0  0  0  0  0  0  0  0  0  0  0
    1.9533   -8.6066   18.2754 O   0  0  0  0  0  0  0  0  0  0  0  0
   -0.3301   -8.4554   17.5085 N   0  0  0  0  0  0  0  0  0  0  0  0
   -1.3696   -9.3756   18.6011 C   0  0  0  0  0  0  0  0  0  0  0  0
   -2.7248   -8.8695   18.4240 C   0  0  0  0  0  0  0  0  0  0  0  0
   -1.7614  -11.2073   18.8324 C   0  0  0  0  0  0  0  0  0  0  0  0
   -2.1943  -12.2261   17.7765 N   0  0  0  0  0  0  0  0  0  0  0  0
   -2.1813  -13.7613   17.7908 C   0  0  0  0  0  0  0  0  0  0  0  0
   -1.7437  -14.5360   18.6172 O   0  0  0  0  0  0  0  0  0  0  0  0
   -3.0437  -14.6708   16.4928 C   0  0  0  0  0  0  0  0  0  0  0  0
   -4.1860  -15.9890   16.7784 C   0  0  0  0  0  0  0  0  0  0  0  0
   -4.2117  -16.9465   17.8344 C   0  0  0  0  0  0  0  0  0  0  0  0
   -5.1132  -17.9452   18.0225 N   0  0  0  0  0  0  0  0  0  0  0  0
   -6.0591  -18.0203   17.0910 C   0  0  0  0  0  0  0  0  0  0  0  0
   -6.1760  -17.1881   16.0396 N   0  0  0  0  0  0  0  0  0  0  0  0
   -5.2250  -16.2141   15.8964 C   0  0  0  0  0  0  0  0  0  0  0  0
    3.9889   -6.8994   16.0766 C   0  0  0  0  0  0  0  0  0  0  0  0
    4.6309   -5.7159   15.8662 N   0  0  0  0  0  0  0  0  0  0  0  0
    3.5531   -3.2019   13.9538 H   0  0  0  0  0  0  0  0  0  0  0  0
    3.7086   -2.7111   15.6456 H   0  0  0  0  0  0  0  0  0  0  0  0
    5.1311   -3.2597   14.7342 H   0  0  0  0  0  0  0  0  0  0  0  0
    1.3139   -7.9417   15.0806 H   0  0  0  0  0  0  0  0  0  0  0  0
    0.5659   -6.6829   15.8155 H   0  0  0  0  0  0  0  0  0  0  0  0
   -0.7064   -8.1045   16.6599 H   0  0  0  0  0  0  0  0  0  0  0  0
   -1.0790   -8.9755   19.5896 H   0  0  0  0  0  0  0  0  0  0  0  0
   -3.2679   -9.3375   17.6003 H   0  0  0  0  0  0  0  0  0  0  0  0
   -3.2164   -9.0584   19.3728 H   0  0  0  0  0  0  0  0  0  0  0  0
   -2.5872   -7.8035   18.2534 H   0  0  0  0  0  0  0  0  0  0  0  0
   -1.2293  -11.6691   19.6527 H   0  0  0  0  0  0  0  0  0  0  0  0
   -2.7267  -11.1101   19.3562 H   0  0  0  0  0  0  0  0  0  0  0  0
   -2.5499  -11.9150   16.9241 H   0  0  0  0  0  0  0  0  0  0  0  0
   -3.8248  -14.0188   16.2150 H   0  0  0  0  0  0  0  0  0  0  0  0
   -2.3973  -14.9143   15.6618 H   0  0  0  0  0  0  0  0  0  0  0  0
   -3.4867  -16.9328   18.6507 H   0  0  0  0  0  0  0  0  0  0  0  0
   -6.7987  -18.8059   17.1890 H   0  0  0  0  0  0  0  0  0  0  0  0
   -5.3492  -15.5997   15.0095 H   0  0  0  0  0  0  0  0  0  0  0  0
    4.4599   -7.7627   16.5239 H   0  0  0  0  0  0  0  0  0  0  0  0
    5.6137   -5.5800   16.0035 H   0  0  0  0  0  0  0  0  0  0  0  0
  1  2  1  0
  2  3  2  0
  3  4  1  0
  4  5  1  0
  5  6  1  0
  6  7  2  0
  6  8  1  0
  8  9  1  0
  9 10  1  0
  9 11  1  0
 11 12  1  0
 12 13  1  0
 13 14  2  0
 13 15  1  0
 15 16  1  0
 16 17  2  0
 17 18  1  0
 18 19  2  0
 19 20  1  0
 20 21  2  0
  4 22  2  0
 22 23  1  0
 23  2  1  0
 21 16  1  0
  1 24  1  0
  1 25  1  0
  1 26  1  0
  5 27  1  0
  5 28  1  0
  8 29  1  0
  9 30  1  0
 10 31  1  0
 10 32  1  0
 10 33  1  0
 11 34  1  0
 11 35  1  0
 12 36  1  0
 15 37  1  0
 15 38  1  0
 17 39  1  0
 19 40  1  0
 21 41  1  0
 22 42  1  0
 23 43  1  0
M  END
>  <Energy>  (864) 
193.5307497751777

>  <compound_id>  (864) 
28784

>  <target_id>  (864) 
1

>  <reference_id>  (864) 
80

>  <inspiration_ids>  (864) 
[80, 54]

>  <energy_score>  (864) 
154.39306312332224

>  <distance_score>  (864) 
13.32695151784419

>  <path>  (864) 
/opt/xchem-fragalysis-2/maxwin/BulkDock/SCRATCH/511021/C28784-P80/C28784-P80.minimised.mol

>  <scratch_subdir>  (864) 
/opt/xchem-fragalysis-2/maxwin/BulkDock/SCRATCH/511021/C28784-P80

>  <fragmenstein_runtime>  (864) 
40.16319751739502

>  <fragmenstein_outcome>  (864) 
too moved

>  <fragmenstein_mode>  (864) 
expansion

>  <fragmenstein_error>  (864) 


$$$$
C28784-P54
     RDKit          3D

 43 44  0  0  0  0  0  0  0  0999 V2000
    5.2782   -5.4095   24.5906 C   0  0  0  0  0  0  0  0  0  0  0  0
    5.4503   -6.8315   24.2094 C   0  0  0  0  0  0  0  0  0  0  0  0
    4.7317   -7.8584   24.6378 N   0  0  0  0  0  0  0  0  0  0  0  0
    5.2577   -8.9766   24.0216 C   0  0  0  0  0  0  0  0  0  0  0  0
    4.7064  -10.5926   24.2811 C   0  0  0  0  0  0  0  0  0  0  0  0
    3.3862  -11.7939   23.5087 C   0  0  0  0  0  0  0  0  0  0  0  0
    3.8140  -12.6882   22.7907 O   0  0  0  0  0  0  0  0  0  0  0  0
    1.7303  -11.3069   23.8488 N   0  0  0  0  0  0  0  0  0  0  0  0
    0.3817  -11.7750   23.2288 C   0  0  0  0  0  0  0  0  0  0  0  0
    1.2694  -11.4169   21.6333 C   0  0  0  0  0  0  0  0  0  0  0  0
   -1.6628  -12.2839   23.2239 C   0  0  0  0  0  0  0  0  0  0  0  0
   -2.3695  -13.2595   24.6605 N   0  0  0  0  0  0  0  0  0  0  0  0
   -2.5804  -15.0353   24.8605 C   0  0  0  0  0  0  0  0  0  0  0  0
   -2.3633  -15.8544   24.0257 O   0  0  0  0  0  0  0  0  0  0  0  0
   -2.9165  -15.6759   26.0776 C   0  0  0  0  0  0  0  0  0  0  0  0
   -3.2645  -17.5359   26.4259 C   0  0  0  0  0  0  0  0  0  0  0  0
   -3.8979  -18.0687   27.5616 C   0  0  0  0  0  0  0  0  0  0  0  0
   -4.2413  -19.3740   27.7750 N   0  0  0  0  0  0  0  0  0  0  0  0
   -4.1766  -20.1612   26.7186 C   0  0  0  0  0  0  0  0  0  0  0  0
   -3.7154  -19.8061   25.5369 N   0  0  0  0  0  0  0  0  0  0  0  0
   -3.3137  -18.5103   25.4397 C   0  0  0  0  0  0  0  0  0  0  0  0
    6.3504   -8.5954   23.2373 C   0  0  0  0  0  0  0  0  0  0  0  0
    6.4338   -7.2363   23.3412 N   0  0  0  0  0  0  0  0  0  0  0  0
    6.1535   -5.0506   25.1404 H   0  0  0  0  0  0  0  0  0  0  0  0
    4.3985   -5.2873   25.2300 H   0  0  0  0  0  0  0  0  0  0  0  0
    5.1422   -4.7851   23.7021 H   0  0  0  0  0  0  0  0  0  0  0  0
    4.9280  -10.6249   23.1588 H   0  0  0  0  0  0  0  0  0  0  0  0
    5.7897  -10.7744   24.2705 H   0  0  0  0  0  0  0  0  0  0  0  0
    1.7318  -10.5100   24.3890 H   0  0  0  0  0  0  0  0  0  0  0  0
    0.1455  -10.7354   23.5506 H   0  0  0  0  0  0  0  0  0  0  0  0
    0.9115  -10.5985   21.0141 H   0  0  0  0  0  0  0  0  0  0  0  0
    1.5752  -12.3847   21.2050 H   0  0  0  0  0  0  0  0  0  0  0  0
    2.3084  -11.1480   21.6463 H   0  0  0  0  0  0  0  0  0  0  0  0
   -2.4082  -11.4905   23.1573 H   0  0  0  0  0  0  0  0  0  0  0  0
   -1.6320  -13.0795   22.4745 H   0  0  0  0  0  0  0  0  0  0  0  0
   -2.5348  -12.8079   25.5270 H   0  0  0  0  0  0  0  0  0  0  0  0
   -3.6753  -15.0265   26.5232 H   0  0  0  0  0  0  0  0  0  0  0  0
   -1.8410  -15.6783   26.2679 H   0  0  0  0  0  0  0  0  0  0  0  0
   -4.2126  -17.4590   28.4041 H   0  0  0  0  0  0  0  0  0  0  0  0
   -4.5552  -21.1547   26.7947 H   0  0  0  0  0  0  0  0  0  0  0  0
   -2.9384  -18.3165   24.4542 H   0  0  0  0  0  0  0  0  0  0  0  0
    7.0377   -9.1736   22.6350 H   0  0  0  0  0  0  0  0  0  0  0  0
    7.1170   -6.6369   22.8986 H   0  0  0  0  0  0  0  0  0  0  0  0
  1  2  1  0
  2  3  2  0
  3  4  1  0
  4  5  1  0
  5  6  1  0
  6  7  2  0
  6  8  1  0
  8  9  1  0
  9 10  1  0
  9 11  1  0
 11 12  1  0
 12 13  1  0
 13 14  2  0
 13 15  1  0
 15 16  1  0
 16 17  2  0
 17 18  1  0
 18 19  2  0
 19 20  1  0
 20 21  2  0
  4 22  2  0
 22 23  1  0
 23  2  1  0
 21 16  1  0
  1 24  1  0
  1 25  1  0
  1 26  1  0
  5 27  1  0
  5 28  1  0
  8 29  1  0
  9 30  1  0
 10 31  1  0
 10 32  1  0
 10 33  1  0
 11 34  1  0
 11 35  1  0
 12 36  1  0
 15 37  1  0
 15 38  1  0
 17 39  1  0
 19 40  1  0
 21 41  1  0
 22 42  1  0
 23 43  1  0
M  END
>  <Energy>  (865) 
566.37114877242152

>  <compound_id>  (865) 
28784

>  <target_id>  (865) 
1

>  <reference_id>  (865) 
54

>  <inspiration_ids>  (865) 
[80, 54]

>  <energy_score>  (865) 
527.2334621205777

>  <distance_score>  (865) 
10.911496655973856

>  <path>  (865) 
/opt/xchem-fragalysis-2/maxwin/BulkDock/SCRATCH/511021/C28784-P54/C28784-P54.minimised.mol

>  <scratch_subdir>  (865) 
/opt/xchem-fragalysis-2/maxwin/BulkDock/SCRATCH/511021/C28784-P54

>  <fragmenstein_runtime>  (865) 
23.74544858932495

>  <fragmenstein_outcome>  (865) 
too moved

>  <fragmenstein_mode>  (865) 
expansion

>  <fragmenstein_error>  (865) 


$$$$
C50843-P80
     RDKit          3D

 43 44  0  0  0  0  0  0  0  0999 V2000
   -5.2241  -22.7542   27.1844 C   0  0  0  0  0  0  0  0  0  0  0  0
   -4.2379  -21.8374   26.6588 C   0  0  0  0  0  0  0  0  0  0  0  0
   -3.4570  -21.0149   27.3116 N   0  0  0  0  0  0  0  0  0  0  0  0
   -2.7267  -20.3425   26.3384 C   0  0  0  0  0  0  0  0  0  0  0  0
   -1.6087  -19.3323   26.8286 C   0  0  0  0  0  0  0  0  0  0  0  0
   -0.0757  -18.4939   26.4037 C   0  0  0  0  0  0  0  0  0  0  0  0
    0.2474  -17.7789   27.3240 O   0  0  0  0  0  0  0  0  0  0  0  0
    0.9143  -18.4751   24.7561 N   0  0  0  0  0  0  0  0  0  0  0  0
    2.4781  -17.2551   24.1357 C   0  0  0  0  0  0  0  0  0  0  0  0
    1.6887  -15.2494   23.4961 C   0  0  0  0  0  0  0  0  0  0  0  0
    3.1484  -15.3604   23.4217 C   0  0  0  0  0  0  0  0  0  0  0  0
    3.3512  -14.3997   21.8726 N   0  0  0  0  0  0  0  0  0  0  0  0
    3.7071  -12.8969   21.6449 C   0  0  0  0  0  0  0  0  0  0  0  0
    3.8000  -11.9728   22.4420 O   0  0  0  0  0  0  0  0  0  0  0  0
    4.2174  -12.6160   20.0637 C   0  0  0  0  0  0  0  0  0  0  0  0
    5.9400  -12.0554   20.3183 C   0  0  0  0  0  0  0  0  0  0  0  0
    6.5356  -11.0907   19.6565 C   0  0  0  0  0  0  0  0  0  0  0  0
    7.8167  -10.4282   19.6810 N   0  0  0  0  0  0  0  0  0  0  0  0
    8.7349  -10.9290   20.4611 C   0  0  0  0  0  0  0  0  0  0  0  0
    8.2900  -11.9678   21.1664 C   0  0  0  0  0  0  0  0  0  0  0  0
    6.9539  -12.4931   21.0474 N   0  0  0  0  0  0  0  0  0  0  0  0
   -3.0743  -20.8884   25.1007 C   0  0  0  0  0  0  0  0  0  0  0  0
   -4.0191  -21.8199   25.3221 N   0  0  0  0  0  0  0  0  0  0  0  0
   -5.6538  -23.2924   26.3450 H   0  0  0  0  0  0  0  0  0  0  0  0
   -4.6941  -23.4183   27.8601 H   0  0  0  0  0  0  0  0  0  0  0  0
   -6.0550  -22.2655   27.6779 H   0  0  0  0  0  0  0  0  0  0  0  0
   -2.1844  -18.4582   27.1663 H   0  0  0  0  0  0  0  0  0  0  0  0
   -1.2855  -19.8002   27.7793 H   0  0  0  0  0  0  0  0  0  0  0  0
    0.5458  -19.2022   24.1365 H   0  0  0  0  0  0  0  0  0  0  0  0
    3.1739  -17.8532   23.5766 H   0  0  0  0  0  0  0  0  0  0  0  0
    2.2120  -13.9882   23.5568 H   0  0  0  0  0  0  0  0  0  0  0  0
    0.8265  -14.9509   22.4396 H   0  0  0  0  0  0  0  0  0  0  0  0
    0.7606  -14.5585   24.1686 H   0  0  0  0  0  0  0  0  0  0  0  0
    3.6996  -14.6798   24.1832 H   0  0  0  0  0  0  0  0  0  0  0  0
    4.1469  -15.7889   23.4091 H   0  0  0  0  0  0  0  0  0  0  0  0
    3.2708  -14.8397   21.0119 H   0  0  0  0  0  0  0  0  0  0  0  0
    4.8383  -13.4613   19.8092 H   0  0  0  0  0  0  0  0  0  0  0  0
    3.9121  -12.6734   19.0164 H   0  0  0  0  0  0  0  0  0  0  0  0
    5.8492  -10.6266   19.0458 H   0  0  0  0  0  0  0  0  0  0  0  0
    9.7249  -10.5105   20.4881 H   0  0  0  0  0  0  0  0  0  0  0  0
    8.9626  -12.4971   21.8340 H   0  0  0  0  0  0  0  0  0  0  0  0
   -2.6708  -20.7771   24.1061 H   0  0  0  0  0  0  0  0  0  0  0  0
   -4.4673  -22.4041   24.6269 H   0  0  0  0  0  0  0  0  0  0  0  0
  1  2  1  0
  2  3  2  0
  3  4  1  0
  4  5  1  0
  5  6  1  0
  6  7  2  0
  6  8  1  0
  8  9  1  0
  9 10  1  0
  9 11  1  0
 11 12  1  0
 12 13  1  0
 13 14  2  0
 13 15  1  0
 15 16  1  0
 16 17  2  0
 17 18  1  0
 18 19  2  0
 19 20  1  0
 20 21  2  0
  4 22  2  0
 22 23  1  0
 23  2  1  0
 21 16  1  0
  1 24  1  0
  1 25  1  0
  1 26  1  0
  5 27  1  0
  5 28  1  0
  8 29  1  0
  9 30  1  0
 10 31  1  0
 10 32  1  0
 10 33  1  0
 11 34  1  0
 11 35  1  0
 12 36  1  0
 15 37  1  0
 15 38  1  0
 17 39  1  0
 19 40  1  0
 20 41  1  0
 22 42  1  0
 23 43  1  0
M  END
>  <Energy>  (866) 
1047.5323440225739

>  <compound_id>  (866) 
50843

>  <target_id>  (866) 
1

>  <reference_id>  (866) 
80

>  <inspiration_ids>  (866) 
[80, 54]

>  <energy_score>  (866) 
955.4443796413946

>  <distance_score>  (866) 
10.04523944724251

>  <path>  (866) 
/opt/xchem-fragalysis-2/maxwin/BulkDock/SCRATCH/511021/C50843-P80/C50843-P80.minimised.mol

>  <scratch_subdir>  (866) 
/opt/xchem-fragalysis-2/maxwin/BulkDock/SCRATCH/511021/C50843-P80

>  <fragmenstein_runtime>  (866) 
35.49470138549805

>  <fragmenstein_outcome>  (866) 
too moved

>  <fragmenstein_mode>  (866) 
expansion

>  <fragmenstein_error>  (866) 


$$$$
C50843-P54
     RDKit          3D

 43 44  0  0  0  0  0  0  0  0999 V2000
   -5.4828  -15.4757   30.5019 C   0  0  0  0  0  0  0  0  0  0  0  0
   -5.0405  -14.0752   30.2427 C   0  0  0  0  0  0  0  0  0  0  0  0
   -3.8153  -13.5866   30.2928 N   0  0  0  0  0  0  0  0  0  0  0  0
   -3.8831  -12.2279   29.9467 C   0  0  0  0  0  0  0  0  0  0  0  0
   -2.5814  -11.4198   29.8524 C   0  0  0  0  0  0  0  0  0  0  0  0
   -2.5472   -9.8430   29.7377 C   0  0  0  0  0  0  0  0  0  0  0  0
   -3.5470   -9.1864   29.8423 O   0  0  0  0  0  0  0  0  0  0  0  0
   -1.1313   -9.4256   29.5564 N   0  0  0  0  0  0  0  0  0  0  0  0
   -0.5014   -8.0643   29.5467 C   0  0  0  0  0  0  0  0  0  0  0  0
   -1.1362   -7.1598   30.6015 C   0  0  0  0  0  0  0  0  0  0  0  0
   -0.3532   -7.2965   28.1643 C   0  0  0  0  0  0  0  0  0  0  0  0
    0.9803   -6.6999   27.8476 N   0  0  0  0  0  0  0  0  0  0  0  0
    1.7342   -6.6361   26.5787 C   0  0  0  0  0  0  0  0  0  0  0  0
    1.4977   -7.1184   25.5025 O   0  0  0  0  0  0  0  0  0  0  0  0
    3.0078   -5.7416   26.7421 C   0  0  0  0  0  0  0  0  0  0  0  0
    3.8860   -5.5166   25.4942 C   0  0  0  0  0  0  0  0  0  0  0  0
    4.7357   -6.5060   24.9973 C   0  0  0  0  0  0  0  0  0  0  0  0
    5.5401   -6.3403   23.9091 N   0  0  0  0  0  0  0  0  0  0  0  0
    5.5024   -5.1195   23.3369 C   0  0  0  0  0  0  0  0  0  0  0  0
    4.6972   -4.1108   23.8234 C   0  0  0  0  0  0  0  0  0  0  0  0
    3.8749   -4.2882   24.8956 N   0  0  0  0  0  0  0  0  0  0  0  0
   -5.2061  -11.9224   29.7019 C   0  0  0  0  0  0  0  0  0  0  0  0
   -5.9193  -13.0823   29.8933 N   0  0  0  0  0  0  0  0  0  0  0  0
   -4.6268  -16.1081   30.7545 H   0  0  0  0  0  0  0  0  0  0  0  0
   -5.9587  -15.8781   29.6049 H   0  0  0  0  0  0  0  0  0  0  0  0
   -6.1901  -15.5002   31.3348 H   0  0  0  0  0  0  0  0  0  0  0  0
   -1.9952  -11.6683   30.7474 H   0  0  0  0  0  0  0  0  0  0  0  0
   -2.0387  -11.8168   28.9884 H   0  0  0  0  0  0  0  0  0  0  0  0
   -0.5366  -10.2445   29.5889 H   0  0  0  0  0  0  0  0  0  0  0  0
    0.5220   -8.2738   29.8850 H   0  0  0  0  0  0  0  0  0  0  0  0
   -1.1588   -7.6543   31.5786 H   0  0  0  0  0  0  0  0  0  0  0  0
   -2.1657   -6.9000   30.3346 H   0  0  0  0  0  0  0  0  0  0  0  0
   -0.5692   -6.2289   30.7071 H   0  0  0  0  0  0  0  0  0  0  0  0
   -0.6133   -7.9109   27.3134 H   0  0  0  0  0  0  0  0  0  0  0  0
   -1.0526   -6.4523   28.1446 H   0  0  0  0  0  0  0  0  0  0  0  0
    1.5173   -6.2441   28.5764 H   0  0  0  0  0  0  0  0  0  0  0  0
    2.6635   -4.7579   27.0858 H   0  0  0  0  0  0  0  0  0  0  0  0
    3.6357   -6.1598   27.5364 H   0  0  0  0  0  0  0  0  0  0  0  0
    4.7956   -7.4834   25.4651 H   0  0  0  0  0  0  0  0  0  0  0  0
    6.1402   -4.9732   22.4729 H   0  0  0  0  0  0  0  0  0  0  0  0
    4.6749   -3.1290   23.3641 H   0  0  0  0  0  0  0  0  0  0  0  0
   -5.6869  -11.0005   29.4054 H   0  0  0  0  0  0  0  0  0  0  0  0
   -6.9175  -13.1927   29.7926 H   0  0  0  0  0  0  0  0  0  0  0  0
  1  2  1  0
  2  3  2  0
  3  4  1  0
  4  5  1  0
  5  6  1  0
  6  7  2  0
  6  8  1  0
  8  9  1  0
  9 10  1  0
  9 11  1  0
 11 12  1  0
 12 13  1  0
 13 14  2  0
 13 15  1  0
 15 16  1  0
 16 17  2  0
 17 18  1  0
 18 19  2  0
 19 20  1  0
 20 21  2  0
  4 22  2  0
 22 23  1  0
 23  2  1  0
 21 16  1  0
  1 24  1  0
  1 25  1  0
  1 26  1  0
  5 27  1  0
  5 28  1  0
  8 29  1  0
  9 30  1  0
 10 31  1  0
 10 32  1  0
 10 33  1  0
 11 34  1  0
 11 35  1  0
 12 36  1  0
 15 37  1  0
 15 38  1  0
 17 39  1  0
 19 40  1  0
 20 41  1  0
 22 42  1  0
 23 43  1  0
M  END
>  <Energy>  (867) 
98.708776135187961

>  <compound_id>  (867) 
50843

>  <target_id>  (867) 
1

>  <reference_id>  (867) 
54

>  <inspiration_ids>  (867) 
[80, 54]

>  <energy_score>  (867) 
6.6208117540138005

>  <distance_score>  (867) 
12.044343739460421

>  <path>  (867) 
/opt/xchem-fragalysis-2/maxwin/BulkDock/SCRATCH/511021/C50843-P54/C50843-P54.minimised.mol

>  <scratch_subdir>  (867) 
/opt/xchem-fragalysis-2/maxwin/BulkDock/SCRATCH/511021/C50843-P54

>  <fragmenstein_runtime>  (867) 
37.764326333999634

>  <fragmenstein_outcome>  (867) 
too moved

>  <fragmenstein_mode>  (867) 
expansion

>  <fragmenstein_error>  (867) 


$$$$
C50844-P80
     RDKit          3D

 41 42  0  0  0  0  0  0  0  0999 V2000
    5.6654  -12.6487   12.2929 C   0  0  0  0  0  0  0  0  0  0  0  0
    4.8734  -11.4781   12.7337 C   0  0  0  0  0  0  0  0  0  0  0  0
    5.4801  -10.3414   13.2333 N   0  0  0  0  0  0  0  0  0  0  0  0
    4.5084   -9.4172   13.4587 C   0  0  0  0  0  0  0  0  0  0  0  0
    3.3238   -9.8969   13.1599 N   0  0  0  0  0  0  0  0  0  0  0  0
    3.5053  -11.2257   12.7623 C   0  0  0  0  0  0  0  0  0  0  0  0
    2.2564  -12.0310   12.3402 C   0  0  0  0  0  0  0  0  0  0  0  0
    2.1674  -13.5798   12.6130 C   0  0  0  0  0  0  0  0  0  0  0  0
    3.0901  -14.2599   12.2475 O   0  0  0  0  0  0  0  0  0  0  0  0
    0.8792  -13.9582   13.2153 N   0  0  0  0  0  0  0  0  0  0  0  0
    0.3532  -15.2924   13.6537 C   0  0  0  0  0  0  0  0  0  0  0  0
    0.7425  -16.3861   12.6584 C   0  0  0  0  0  0  0  0  0  0  0  0
   -1.2149  -15.3391   13.9005 C   0  0  0  0  0  0  0  0  0  0  0  0
   -1.7614  -16.4770   14.6886 N   0  0  0  0  0  0  0  0  0  0  0  0
   -2.9516  -16.5665   15.5583 C   0  0  0  0  0  0  0  0  0  0  0  0
   -3.7285  -15.7211   15.9073 O   0  0  0  0  0  0  0  0  0  0  0  0
   -3.1413  -18.0240   16.0805 C   0  0  0  0  0  0  0  0  0  0  0  0
   -4.0763  -18.2193   17.2116 N   0  0  0  0  0  0  0  0  0  0  0  0
   -3.7785  -18.2093   18.5497 C   0  0  0  0  0  0  0  0  0  0  0  0
   -4.7794  -18.7038   19.2469 N   0  0  0  0  0  0  0  0  0  0  0  0
   -5.6831  -19.0389   18.2891 C   0  0  0  0  0  0  0  0  0  0  0  0
   -5.2966  -18.7923   17.0320 N   0  0  0  0  0  0  0  0  0  0  0  0
    5.6387  -13.4410   13.0459 H   0  0  0  0  0  0  0  0  0  0  0  0
    5.2788  -13.0447   11.3490 H   0  0  0  0  0  0  0  0  0  0  0  0
    6.7143  -12.3791   12.1292 H   0  0  0  0  0  0  0  0  0  0  0  0
    6.4670  -10.2027   13.4126 H   0  0  0  0  0  0  0  0  0  0  0  0
    4.7206   -8.4310   13.8432 H   0  0  0  0  0  0  0  0  0  0  0  0
    1.3790  -11.5341   12.7679 H   0  0  0  0  0  0  0  0  0  0  0  0
    2.1594  -11.9181   11.2519 H   0  0  0  0  0  0  0  0  0  0  0  0
    0.3740  -13.1160   13.4773 H   0  0  0  0  0  0  0  0  0  0  0  0
    0.8561  -15.4985   14.6053 H   0  0  0  0  0  0  0  0  0  0  0  0
    1.8298  -16.4812   12.5798 H   0  0  0  0  0  0  0  0  0  0  0  0
    0.3537  -16.1643   11.6587 H   0  0  0  0  0  0  0  0  0  0  0  0
    0.3554  -17.3618   12.9683 H   0  0  0  0  0  0  0  0  0  0  0  0
   -1.7306  -15.3646   12.9331 H   0  0  0  0  0  0  0  0  0  0  0  0
   -1.5633  -14.4321   14.3980 H   0  0  0  0  0  0  0  0  0  0  0  0
   -1.3868  -17.4073   14.5411 H   0  0  0  0  0  0  0  0  0  0  0  0
   -2.1786  -18.4270   16.4128 H   0  0  0  0  0  0  0  0  0  0  0  0
   -3.5138  -18.6387   15.2535 H   0  0  0  0  0  0  0  0  0  0  0  0
   -2.8362  -17.8514   18.9416 H   0  0  0  0  0  0  0  0  0  0  0  0
   -6.6453  -19.4849   18.5054 H   0  0  0  0  0  0  0  0  0  0  0  0
  1  2  1  0
  2  3  1  0
  3  4  1  0
  4  5  2  0
  5  6  1  0
  6  7  1  0
  7  8  1  0
  8  9  2  0
  8 10  1  0
 10 11  1  0
 11 12  1  0
 11 13  1  0
 13 14  1  0
 14 15  1  0
 15 16  2  0
 15 17  1  0
 17 18  1  0
 18 19  1  0
 19 20  2  0
 20 21  1  0
 21 22  2  0
  6  2  2  0
 22 18  1  0
  1 23  1  0
  1 24  1  0
  1 25  1  0
  3 26  1  0
  4 27  1  0
  7 28  1  0
  7 29  1  0
 10 30  1  0
 11 31  1  0
 12 32  1  0
 12 33  1  0
 12 34  1  0
 13 35  1  0
 13 36  1  0
 14 37  1  0
 17 38  1  0
 17 39  1  0
 19 40  1  0
 21 41  1  0
M  END
>  <Energy>  (868) 
53.871398807781141

>  <compound_id>  (868) 
50844

>  <target_id>  (868) 
1

>  <reference_id>  (868) 
80

>  <inspiration_ids>  (868) 
[80, 54]

>  <energy_score>  (868) 
1.0279590823877243

>  <distance_score>  (868) 
13.59084607986303

>  <path>  (868) 
/opt/xchem-fragalysis-2/maxwin/BulkDock/SCRATCH/511021/C50844-P80/C50844-P80.minimised.mol

>  <scratch_subdir>  (868) 
/opt/xchem-fragalysis-2/maxwin/BulkDock/SCRATCH/511021/C50844-P80

>  <fragmenstein_runtime>  (868) 
53.90652823448181

>  <fragmenstein_outcome>  (868) 
too moved

>  <fragmenstein_mode>  (868) 
expansion

>  <fragmenstein_error>  (868) 


$$$$
C50844-P54
     RDKit          3D

 41 42  0  0  0  0  0  0  0  0999 V2000
    2.6094  -11.7684   24.5436 C   0  0  0  0  0  0  0  0  0  0  0  0
    1.1363  -11.3919   23.5089 C   0  0  0  0  0  0  0  0  0  0  0  0
    2.2472  -11.4640   22.1475 N   0  0  0  0  0  0  0  0  0  0  0  0
    1.4560  -11.1486   21.2278 C   0  0  0  0  0  0  0  0  0  0  0  0
    0.6728  -12.2408   21.3909 N   0  0  0  0  0  0  0  0  0  0  0  0
    0.0741  -12.3232   22.6133 C   0  0  0  0  0  0  0  0  0  0  0  0
   -1.6468  -12.9911   22.6923 C   0  0  0  0  0  0  0  0  0  0  0  0
   -2.8366  -14.4072   23.1563 C   0  0  0  0  0  0  0  0  0  0  0  0
   -3.9618  -14.2378   22.7132 O   0  0  0  0  0  0  0  0  0  0  0  0
   -2.1214  -15.8080   24.0399 N   0  0  0  0  0  0  0  0  0  0  0  0
   -2.7838  -17.5080   24.4676 C   0  0  0  0  0  0  0  0  0  0  0  0
   -1.7995  -17.0986   25.5596 C   0  0  0  0  0  0  0  0  0  0  0  0
   -4.5420  -18.5585   24.5205 C   0  0  0  0  0  0  0  0  0  0  0  0
   -5.6780  -18.6003   23.4686 N   0  0  0  0  0  0  0  0  0  0  0  0
   -6.3341  -19.7804   22.7557 C   0  0  0  0  0  0  0  0  0  0  0  0
   -6.1783  -20.9667   22.9022 O   0  0  0  0  0  0  0  0  0  0  0  0
   -7.2649  -19.2435   21.6009 C   0  0  0  0  0  0  0  0  0  0  0  0
   -8.6335  -19.7448   21.5542 N   0  0  0  0  0  0  0  0  0  0  0  0
   -9.0763  -21.0308   21.6122 C   0  0  0  0  0  0  0  0  0  0  0  0
  -10.3784  -21.0384   21.8054 N   0  0  0  0  0  0  0  0  0  0  0  0
  -10.7087  -19.7236   21.7959 C   0  0  0  0  0  0  0  0  0  0  0  0
   -9.6844  -18.8758   21.6520 N   0  0  0  0  0  0  0  0  0  0  0  0
    3.4412  -11.0850   24.6800 H   0  0  0  0  0  0  0  0  0  0  0  0
    2.2975  -12.2865   25.4395 H   0  0  0  0  0  0  0  0  0  0  0  0
    3.3458  -12.3588   23.9486 H   0  0  0  0  0  0  0  0  0  0  0  0
    3.1543  -11.1370   22.3986 H   0  0  0  0  0  0  0  0  0  0  0  0
    1.6430  -10.5497   20.3637 H   0  0  0  0  0  0  0  0  0  0  0  0
   -1.6643  -13.7830   21.9678 H   0  0  0  0  0  0  0  0  0  0  0  0
   -1.4369  -12.7195   21.6511 H   0  0  0  0  0  0  0  0  0  0  0  0
   -1.1446  -15.6673   24.1952 H   0  0  0  0  0  0  0  0  0  0  0  0
   -2.3599  -18.3196   23.8463 H   0  0  0  0  0  0  0  0  0  0  0  0
   -0.7941  -16.7541   25.3082 H   0  0  0  0  0  0  0  0  0  0  0  0
   -1.4839  -17.7694   26.3413 H   0  0  0  0  0  0  0  0  0  0  0  0
   -2.2237  -16.1063   25.8169 H   0  0  0  0  0  0  0  0  0  0  0  0
   -4.3688  -19.6451   24.4968 H   0  0  0  0  0  0  0  0  0  0  0  0
   -5.1026  -18.4031   25.4513 H   0  0  0  0  0  0  0  0  0  0  0  0
   -6.1061  -17.7391   23.1524 H   0  0  0  0  0  0  0  0  0  0  0  0
   -6.8143  -19.5301   20.6437 H   0  0  0  0  0  0  0  0  0  0  0  0
   -7.3241  -18.1506   21.6234 H   0  0  0  0  0  0  0  0  0  0  0  0
   -8.4210  -21.8900   21.5578 H   0  0  0  0  0  0  0  0  0  0  0  0
  -11.7259  -19.3708   21.9002 H   0  0  0  0  0  0  0  0  0  0  0  0
  1  2  1  0
  2  3  1  0
  3  4  1  0
  4  5  2  0
  5  6  1  0
  6  7  1  0
  7  8  1  0
  8  9  2  0
  8 10  1  0
 10 11  1  0
 11 12  1  0
 11 13  1  0
 13 14  1  0
 14 15  1  0
 15 16  2  0
 15 17  1  0
 17 18  1  0
 18 19  1  0
 19 20  2  0
 20 21  1  0
 21 22  2  0
  6  2  2  0
 22 18  1  0
  1 23  1  0
  1 24  1  0
  1 25  1  0
  3 26  1  0
  4 27  1  0
  7 28  1  0
  7 29  1  0
 10 30  1  0
 11 31  1  0
 12 32  1  0
 12 33  1  0
 12 34  1  0
 13 35  1  0
 13 36  1  0
 14 37  1  0
 17 38  1  0
 17 39  1  0
 19 40  1  0
 21 41  1  0
M  END
>  <Energy>  (869) 
684.32680950158226

>  <compound_id>  (869) 
50844

>  <target_id>  (869) 
1

>  <reference_id>  (869) 
54

>  <inspiration_ids>  (869) 
[80, 54]

>  <energy_score>  (869) 
631.4833697761878

>  <distance_score>  (869) 
12.804751702522166

>  <path>  (869) 
/opt/xchem-fragalysis-2/maxwin/BulkDock/SCRATCH/511021/C50844-P54/C50844-P54.minimised.mol

>  <scratch_subdir>  (869) 
/opt/xchem-fragalysis-2/maxwin/BulkDock/SCRATCH/511021/C50844-P54

>  <fragmenstein_runtime>  (869) 
19.653104305267334

>  <fragmenstein_outcome>  (869) 
too moved

>  <fragmenstein_mode>  (869) 
expansion

>  <fragmenstein_error>  (869) 


$$$$
C28785-P80
     RDKit          3D

 43 44  0  0  0  0  0  0  0  0999 V2000
    7.3624   -9.9357   18.5666 C   0  0  0  0  0  0  0  0  0  0  0  0
    7.0766  -11.0190   19.5098 C   0  0  0  0  0  0  0  0  0  0  0  0
    8.5671  -11.6350   19.7174 N   0  0  0  0  0  0  0  0  0  0  0  0
    8.3758  -12.6801   20.6789 C   0  0  0  0  0  0  0  0  0  0  0  0
    6.9779  -12.8070   20.8301 N   0  0  0  0  0  0  0  0  0  0  0  0
    6.0790  -12.0918   19.8962 C   0  0  0  0  0  0  0  0  0  0  0  0
    4.4995  -12.8601   19.1414 C   0  0  0  0  0  0  0  0  0  0  0  0
    3.3155  -14.2714   18.8330 C   0  0  0  0  0  0  0  0  0  0  0  0
    3.2055  -14.9986   17.8931 O   0  0  0  0  0  0  0  0  0  0  0  0
    2.6500  -14.2798   20.1240 N   0  0  0  0  0  0  0  0  0  0  0  0
    1.7928  -15.1656   20.6851 C   0  0  0  0  0  0  0  0  0  0  0  0
    3.0228  -14.5036   22.2829 C   0  0  0  0  0  0  0  0  0  0  0  0
    0.2776  -16.4707   20.6335 C   0  0  0  0  0  0  0  0  0  0  0  0
   -0.8170  -17.3414   19.8632 N   0  0  0  0  0  0  0  0  0  0  0  0
   -2.2550  -17.1904   19.7578 C   0  0  0  0  0  0  0  0  0  0  0  0
   -2.9727  -16.3306   20.1566 O   0  0  0  0  0  0  0  0  0  0  0  0
   -2.9939  -18.3685   18.8732 C   0  0  0  0  0  0  0  0  0  0  0  0
   -4.1392  -19.2695   19.3685 C   0  0  0  0  0  0  0  0  0  0  0  0
   -5.4452  -18.8279   19.5627 C   0  0  0  0  0  0  0  0  0  0  0  0
   -6.4791  -19.5904   20.0002 N   0  0  0  0  0  0  0  0  0  0  0  0
   -6.1859  -20.8765   20.2429 C   0  0  0  0  0  0  0  0  0  0  0  0
   -4.9951  -21.4585   20.0262 N   0  0  0  0  0  0  0  0  0  0  0  0
   -4.0069  -20.6349   19.5890 C   0  0  0  0  0  0  0  0  0  0  0  0
    6.5400   -9.2371   18.4099 H   0  0  0  0  0  0  0  0  0  0  0  0
    7.7553  -10.3403   17.6255 H   0  0  0  0  0  0  0  0  0  0  0  0
    8.2658   -9.4161   18.8519 H   0  0  0  0  0  0  0  0  0  0  0  0
    9.4170  -11.2149   19.3522 H   0  0  0  0  0  0  0  0  0  0  0  0
    9.2225  -12.9820   21.2672 H   0  0  0  0  0  0  0  0  0  0  0  0
    5.2358  -13.6808   19.0222 H   0  0  0  0  0  0  0  0  0  0  0  0
    4.1292  -12.2904   18.2892 H   0  0  0  0  0  0  0  0  0  0  0  0
    3.0511  -13.5677   20.7021 H   0  0  0  0  0  0  0  0  0  0  0  0
    1.0155  -14.8510   21.3560 H   0  0  0  0  0  0  0  0  0  0  0  0
    2.4460  -14.4160   23.2166 H   0  0  0  0  0  0  0  0  0  0  0  0
    3.6448  -15.2169   22.8692 H   0  0  0  0  0  0  0  0  0  0  0  0
    3.2562  -13.3849   22.2564 H   0  0  0  0  0  0  0  0  0  0  0  0
   -0.3097  -16.1555   21.4683 H   0  0  0  0  0  0  0  0  0  0  0  0
    0.6478  -17.3765   21.0461 H   0  0  0  0  0  0  0  0  0  0  0  0
   -0.5333  -18.1516   19.3370 H   0  0  0  0  0  0  0  0  0  0  0  0
   -2.2541  -18.9714   18.3443 H   0  0  0  0  0  0  0  0  0  0  0  0
   -3.5182  -17.8161   18.0837 H   0  0  0  0  0  0  0  0  0  0  0  0
   -5.7131  -17.7936   19.3829 H   0  0  0  0  0  0  0  0  0  0  0  0
   -6.9816  -21.5029   20.6292 H   0  0  0  0  0  0  0  0  0  0  0  0
   -3.0593  -21.1392   19.4198 H   0  0  0  0  0  0  0  0  0  0  0  0
  1  2  1  0
  2  3  1  0
  3  4  1  0
  4  5  2  0
  5  6  1  0
  6  7  1  0
  7  8  1  0
  8  9  2  0
  8 10  1  0
 10 11  1  0
 11 12  1  0
 11 13  1  0
 13 14  1  0
 14 15  1  0
 15 16  2  0
 15 17  1  0
 17 18  1  0
 18 19  2  0
 19 20  1  0
 20 21  2  0
 21 22  1  0
 22 23  2  0
  6  2  2  0
 23 18  1  0
  1 24  1  0
  1 25  1  0
  1 26  1  0
  3 27  1  0
  4 28  1  0
  7 29  1  0
  7 30  1  0
 10 31  1  0
 11 32  1  0
 12 33  1  0
 12 34  1  0
 12 35  1  0
 13 36  1  0
 13 37  1  0
 14 38  1  0
 17 39  1  0
 17 40  1  0
 19 41  1  0
 21 42  1  0
 23 43  1  0
M  END
>  <Energy>  (870) 
570.12198056720069

>  <compound_id>  (870) 
28785

>  <target_id>  (870) 
1

>  <reference_id>  (870) 
80

>  <inspiration_ids>  (870) 
[80, 54]

>  <energy_score>  (870) 
527.9001949936137

>  <distance_score>  (870) 
12.061953550390118

>  <path>  (870) 
/opt/xchem-fragalysis-2/maxwin/BulkDock/SCRATCH/511021/C28785-P80/C28785-P80.minimised.mol

>  <scratch_subdir>  (870) 
/opt/xchem-fragalysis-2/maxwin/BulkDock/SCRATCH/511021/C28785-P80

>  <fragmenstein_runtime>  (870) 
27.135122299194336

>  <fragmenstein_outcome>  (870) 
too moved

>  <fragmenstein_mode>  (870) 
expansion

>  <fragmenstein_error>  (870) 


$$$$
C28785-P54
     RDKit          3D

 43 44  0  0  0  0  0  0  0  0999 V2000
    8.2763  -10.8461   23.0230 C   0  0  0  0  0  0  0  0  0  0  0  0
    7.5265   -9.9734   22.0790 C   0  0  0  0  0  0  0  0  0  0  0  0
    8.1982   -8.9791   21.4143 N   0  0  0  0  0  0  0  0  0  0  0  0
    7.2590   -8.0904   21.0200 C   0  0  0  0  0  0  0  0  0  0  0  0
    6.0481   -8.5861   21.1254 N   0  0  0  0  0  0  0  0  0  0  0  0
    6.1584   -9.7986   21.7930 C   0  0  0  0  0  0  0  0  0  0  0  0
    4.9275  -10.4129   22.6152 C   0  0  0  0  0  0  0  0  0  0  0  0
    3.4460  -11.7253   22.6144 C   0  0  0  0  0  0  0  0  0  0  0  0
    3.7784  -12.7022   23.2280 O   0  0  0  0  0  0  0  0  0  0  0  0
    1.7797  -11.4229   21.9335 N   0  0  0  0  0  0  0  0  0  0  0  0
    0.1225  -12.4516   22.1269 C   0  0  0  0  0  0  0  0  0  0  0  0
    0.6159  -11.3802   23.5798 C   0  0  0  0  0  0  0  0  0  0  0  0
   -1.7326  -13.2555   22.7075 C   0  0  0  0  0  0  0  0  0  0  0  0
   -2.5861  -14.8769   23.5398 N   0  0  0  0  0  0  0  0  0  0  0  0
   -2.0003  -15.9708   24.9025 C   0  0  0  0  0  0  0  0  0  0  0  0
   -1.0073  -15.7360   25.5307 O   0  0  0  0  0  0  0  0  0  0  0  0
   -2.6388  -17.5582   25.3981 C   0  0  0  0  0  0  0  0  0  0  0  0
   -3.1076  -18.3898   26.6461 C   0  0  0  0  0  0  0  0  0  0  0  0
   -4.3818  -18.8700   26.7595 C   0  0  0  0  0  0  0  0  0  0  0  0
   -4.7467  -19.9203   27.5493 N   0  0  0  0  0  0  0  0  0  0  0  0
   -3.8069  -20.4196   28.3614 C   0  0  0  0  0  0  0  0  0  0  0  0
   -2.5450  -20.0286   28.4018 N   0  0  0  0  0  0  0  0  0  0  0  0
   -2.2397  -19.0482   27.5264 C   0  0  0  0  0  0  0  0  0  0  0  0
    8.3666  -10.3447   23.9925 H   0  0  0  0  0  0  0  0  0  0  0  0
    9.2883  -11.0402   22.6541 H   0  0  0  0  0  0  0  0  0  0  0  0
    7.7946  -11.8061   23.1935 H   0  0  0  0  0  0  0  0  0  0  0  0
    9.1938   -8.8085   21.4587 H   0  0  0  0  0  0  0  0  0  0  0  0
    7.5160   -7.0971   20.7057 H   0  0  0  0  0  0  0  0  0  0  0  0
    4.8946   -9.7095   23.4697 H   0  0  0  0  0  0  0  0  0  0  0  0
    5.6084  -11.0121   23.1886 H   0  0  0  0  0  0  0  0  0  0  0  0
    1.7849  -10.5785   21.3981 H   0  0  0  0  0  0  0  0  0  0  0  0
    0.7325  -13.0406   21.4399 H   0  0  0  0  0  0  0  0  0  0  0  0
    0.4525  -11.7781   24.5249 H   0  0  0  0  0  0  0  0  0  0  0  0
    1.6351  -11.5009   23.9443 H   0  0  0  0  0  0  0  0  0  0  0  0
    0.3475  -10.3189   23.5423 H   0  0  0  0  0  0  0  0  0  0  0  0
   -2.2731  -12.4728   23.2568 H   0  0  0  0  0  0  0  0  0  0  0  0
   -1.9535  -13.6196   21.7253 H   0  0  0  0  0  0  0  0  0  0  0  0
   -3.4516  -15.2017   23.2172 H   0  0  0  0  0  0  0  0  0  0  0  0
   -1.6372  -17.7399   25.7617 H   0  0  0  0  0  0  0  0  0  0  0  0
   -2.7926  -18.2413   24.5566 H   0  0  0  0  0  0  0  0  0  0  0  0
   -5.1751  -18.4167   26.1830 H   0  0  0  0  0  0  0  0  0  0  0  0
   -4.1062  -21.1821   29.0691 H   0  0  0  0  0  0  0  0  0  0  0  0
   -1.1790  -18.8092   27.5487 H   0  0  0  0  0  0  0  0  0  0  0  0
  1  2  1  0
  2  3  1  0
  3  4  1  0
  4  5  2  0
  5  6  1  0
  6  7  1  0
  7  8  1  0
  8  9  2  0
  8 10  1  0
 10 11  1  0
 11 12  1  0
 11 13  1  0
 13 14  1  0
 14 15  1  0
 15 16  2  0
 15 17  1  0
 17 18  1  0
 18 19  2  0
 19 20  1  0
 20 21  2  0
 21 22  1  0
 22 23  2  0
  6  2  2  0
 23 18  1  0
  1 24  1  0
  1 25  1  0
  1 26  1  0
  3 27  1  0
  4 28  1  0
  7 29  1  0
  7 30  1  0
 10 31  1  0
 11 32  1  0
 12 33  1  0
 12 34  1  0
 12 35  1  0
 13 36  1  0
 13 37  1  0
 14 38  1  0
 17 39  1  0
 17 40  1  0
 19 41  1  0
 21 42  1  0
 23 43  1  0
M  END
>  <Energy>  (871) 
764.86082346158946

>  <compound_id>  (871) 
28785

>  <target_id>  (871) 
1

>  <reference_id>  (871) 
54

>  <inspiration_ids>  (871) 
[80, 54]

>  <energy_score>  (871) 
722.6390378880085

>  <distance_score>  (871) 
10.030493470389846

>  <path>  (871) 
/opt/xchem-fragalysis-2/maxwin/BulkDock/SCRATCH/511021/C28785-P54/C28785-P54.minimised.mol

>  <scratch_subdir>  (871) 
/opt/xchem-fragalysis-2/maxwin/BulkDock/SCRATCH/511021/C28785-P54

>  <fragmenstein_runtime>  (871) 
25.304002046585083

>  <fragmenstein_outcome>  (871) 
too moved

>  <fragmenstein_mode>  (871) 
expansion

>  <fragmenstein_error>  (871) 


$$$$
C50845-P80
     RDKit          3D

 41 42  0  0  0  0  0  0  0  0999 V2000
    3.8089  -11.3786   21.5861 C   0  0  0  0  0  0  0  0  0  0  0  0
    4.2827  -12.3842   22.5618 C   0  0  0  0  0  0  0  0  0  0  0  0
    5.5884  -12.8060   22.4960 N   0  0  0  0  0  0  0  0  0  0  0  0
    5.8023  -13.6423   23.5447 C   0  0  0  0  0  0  0  0  0  0  0  0
    4.7084  -13.8355   24.2504 N   0  0  0  0  0  0  0  0  0  0  0  0
    3.7255  -13.0315   23.6948 C   0  0  0  0  0  0  0  0  0  0  0  0
    2.1423  -12.7757   24.3938 C   0  0  0  0  0  0  0  0  0  0  0  0
    0.9342  -13.5222   25.7013 C   0  0  0  0  0  0  0  0  0  0  0  0
    1.4815  -13.9592   26.6769 O   0  0  0  0  0  0  0  0  0  0  0  0
   -0.9009  -13.6532   25.3247 N   0  0  0  0  0  0  0  0  0  0  0  0
   -2.2322  -14.5373   26.1989 C   0  0  0  0  0  0  0  0  0  0  0  0
   -2.5812  -15.5281   25.0207 C   0  0  0  0  0  0  0  0  0  0  0  0
   -2.5255  -15.3977   27.9537 C   0  0  0  0  0  0  0  0  0  0  0  0
   -3.4680  -15.8523   29.6296 N   0  0  0  0  0  0  0  0  0  0  0  0
   -5.1767  -16.2081   29.9563 C   0  0  0  0  0  0  0  0  0  0  0  0
   -6.1466  -16.1626   29.2190 O   0  0  0  0  0  0  0  0  0  0  0  0
   -5.5057  -16.7935   31.4386 C   0  0  0  0  0  0  0  0  0  0  0  0
   -6.6861  -16.9025   32.4335 N   0  0  0  0  0  0  0  0  0  0  0  0
   -6.6284  -17.7803   33.4606 N   0  0  0  0  0  0  0  0  0  0  0  0
   -7.4623  -17.3035   34.3780 C   0  0  0  0  0  0  0  0  0  0  0  0
   -7.9909  -16.1031   33.9484 C   0  0  0  0  0  0  0  0  0  0  0  0
   -7.4936  -15.8082   32.7464 N   0  0  0  0  0  0  0  0  0  0  0  0
    4.0161  -11.7098   20.5629 H   0  0  0  0  0  0  0  0  0  0  0  0
    2.7437  -11.1905   21.6609 H   0  0  0  0  0  0  0  0  0  0  0  0
    4.3250  -10.4256   21.7437 H   0  0  0  0  0  0  0  0  0  0  0  0
    6.2741  -12.5290   21.8082 H   0  0  0  0  0  0  0  0  0  0  0  0
    6.7613  -14.1025   23.7395 H   0  0  0  0  0  0  0  0  0  0  0  0
    1.8210  -11.8885   23.8959 H   0  0  0  0  0  0  0  0  0  0  0  0
    2.0481  -13.6257   23.7734 H   0  0  0  0  0  0  0  0  0  0  0  0
   -1.0731  -13.3011   24.4583 H   0  0  0  0  0  0  0  0  0  0  0  0
   -2.8531  -13.6387   26.2195 H   0  0  0  0  0  0  0  0  0  0  0  0
   -1.7707  -15.4020   24.3261 H   0  0  0  0  0  0  0  0  0  0  0  0
   -3.4120  -15.3734   24.3504 H   0  0  0  0  0  0  0  0  0  0  0  0
   -2.6506  -16.5487   25.3879 H   0  0  0  0  0  0  0  0  0  0  0  0
   -2.4606  -16.4346   27.5434 H   0  0  0  0  0  0  0  0  0  0  0  0
   -1.5826  -15.0396   28.3668 H   0  0  0  0  0  0  0  0  0  0  0  0
   -2.9278  -15.9099   30.4855 H   0  0  0  0  0  0  0  0  0  0  0  0
   -4.6099  -17.0146   32.0212 H   0  0  0  0  0  0  0  0  0  0  0  0
   -5.8460  -15.7708   31.5397 H   0  0  0  0  0  0  0  0  0  0  0  0
   -7.6041  -17.8375   35.3038 H   0  0  0  0  0  0  0  0  0  0  0  0
   -8.6929  -15.4348   34.4252 H   0  0  0  0  0  0  0  0  0  0  0  0
  1  2  1  0
  2  3  1  0
  3  4  1  0
  4  5  2  0
  5  6  1  0
  6  7  1  0
  7  8  1  0
  8  9  2  0
  8 10  1  0
 10 11  1  0
 11 12  1  0
 11 13  1  0
 13 14  1  0
 14 15  1  0
 15 16  2  0
 15 17  1  0
 17 18  1  0
 18 19  1  0
 19 20  2  0
 20 21  1  0
 21 22  2  0
  6  2  2  0
 22 18  1  0
  1 23  1  0
  1 24  1  0
  1 25  1  0
  3 26  1  0
  4 27  1  0
  7 28  1  0
  7 29  1  0
 10 30  1  0
 11 31  1  0
 12 32  1  0
 12 33  1  0
 12 34  1  0
 13 35  1  0
 13 36  1  0
 14 37  1  0
 17 38  1  0
 17 39  1  0
 20 40  1  0
 21 41  1  0
M  END
>  <Energy>  (872) 
557.75257822163337

>  <compound_id>  (872) 
50845

>  <target_id>  (872) 
1

>  <reference_id>  (872) 
80

>  <inspiration_ids>  (872) 
[80, 54]

>  <energy_score>  (872) 
483.1266953206218

>  <distance_score>  (872) 
12.379959140658908

>  <path>  (872) 
/opt/xchem-fragalysis-2/maxwin/BulkDock/SCRATCH/511021/C50845-P80/C50845-P80.minimised.mol

>  <scratch_subdir>  (872) 
/opt/xchem-fragalysis-2/maxwin/BulkDock/SCRATCH/511021/C50845-P80

>  <fragmenstein_runtime>  (872) 
46.68089294433594

>  <fragmenstein_outcome>  (872) 
too moved

>  <fragmenstein_mode>  (872) 
expansion

>  <fragmenstein_error>  (872) 


$$$$
C50845-P54
     RDKit          3D

 41 42  0  0  0  0  0  0  0  0999 V2000
    3.9985  -11.9012   22.5827 C   0  0  0  0  0  0  0  0  0  0  0  0
    3.3862  -11.3887   23.8974 C   0  0  0  0  0  0  0  0  0  0  0  0
    3.1713  -10.0067   23.7991 N   0  0  0  0  0  0  0  0  0  0  0  0
    1.8517   -9.9888   23.4478 C   0  0  0  0  0  0  0  0  0  0  0  0
    1.2813  -11.1028   23.9021 N   0  0  0  0  0  0  0  0  0  0  0  0
    2.2728  -11.8093   24.7718 C   0  0  0  0  0  0  0  0  0  0  0  0
    1.7406  -13.3948   25.8632 C   0  0  0  0  0  0  0  0  0  0  0  0
    1.2019  -14.0483   27.5198 C   0  0  0  0  0  0  0  0  0  0  0  0
    1.5007  -13.4547   28.5122 O   0  0  0  0  0  0  0  0  0  0  0  0
    0.4809  -15.4464   27.3516 N   0  0  0  0  0  0  0  0  0  0  0  0
   -0.0426  -16.7510   28.6662 C   0  0  0  0  0  0  0  0  0  0  0  0
    1.3029  -16.6216   29.2679 C   0  0  0  0  0  0  0  0  0  0  0  0
   -0.9663  -18.6001   28.9845 C   0  0  0  0  0  0  0  0  0  0  0  0
   -2.4827  -19.7156   29.7190 N   0  0  0  0  0  0  0  0  0  0  0  0
   -3.2809  -21.3147   29.0447 C   0  0  0  0  0  0  0  0  0  0  0  0
   -2.8244  -21.9345   28.0759 O   0  0  0  0  0  0  0  0  0  0  0  0
   -4.8446  -22.0379   29.5128 C   0  0  0  0  0  0  0  0  0  0  0  0
   -6.5392  -22.0123   28.9842 N   0  0  0  0  0  0  0  0  0  0  0  0
   -7.3504  -21.1146   28.0543 N   0  0  0  0  0  0  0  0  0  0  0  0
   -8.6440  -21.7865   28.1418 C   0  0  0  0  0  0  0  0  0  0  0  0
   -8.6345  -22.9067   28.9798 C   0  0  0  0  0  0  0  0  0  0  0  0
   -7.4411  -23.0397   29.5250 N   0  0  0  0  0  0  0  0  0  0  0  0
    3.2996  -11.7461   21.7514 H   0  0  0  0  0  0  0  0  0  0  0  0
    4.8971  -11.3202   22.3366 H   0  0  0  0  0  0  0  0  0  0  0  0
    4.2725  -12.9459   22.5703 H   0  0  0  0  0  0  0  0  0  0  0  0
    3.8358   -9.3550   23.4105 H   0  0  0  0  0  0  0  0  0  0  0  0
    1.3853   -9.1883   22.8922 H   0  0  0  0  0  0  0  0  0  0  0  0
    2.8053  -13.7917   25.8271 H   0  0  0  0  0  0  0  0  0  0  0  0
    1.4353  -14.2962   25.3596 H   0  0  0  0  0  0  0  0  0  0  0  0
    0.3022  -15.6112   26.3731 H   0  0  0  0  0  0  0  0  0  0  0  0
   -0.4359  -16.0613   29.4390 H   0  0  0  0  0  0  0  0  0  0  0  0
    1.9884  -17.4458   29.2939 H   0  0  0  0  0  0  0  0  0  0  0  0
    1.8249  -15.6828   29.1916 H   0  0  0  0  0  0  0  0  0  0  0  0
    1.0103  -16.2788   30.1864 H   0  0  0  0  0  0  0  0  0  0  0  0
   -1.6579  -18.1981   28.2799 H   0  0  0  0  0  0  0  0  0  0  0  0
   -0.5399  -19.2636   28.2432 H   0  0  0  0  0  0  0  0  0  0  0  0
   -2.9636  -19.4328   30.5486 H   0  0  0  0  0  0  0  0  0  0  0  0
   -5.2016  -21.7233   30.5219 H   0  0  0  0  0  0  0  0  0  0  0  0
   -4.5288  -23.0986   29.3349 H   0  0  0  0  0  0  0  0  0  0  0  0
   -9.5738  -21.3778   27.7762 H   0  0  0  0  0  0  0  0  0  0  0  0
   -9.4426  -23.5639   29.2654 H   0  0  0  0  0  0  0  0  0  0  0  0
  1  2  1  0
  2  3  1  0
  3  4  1  0
  4  5  2  0
  5  6  1  0
  6  7  1  0
  7  8  1  0
  8  9  2  0
  8 10  1  0
 10 11  1  0
 11 12  1  0
 11 13  1  0
 13 14  1  0
 14 15  1  0
 15 16  2  0
 15 17  1  0
 17 18  1  0
 18 19  1  0
 19 20  2  0
 20 21  1  0
 21 22  2  0
  6  2  2  0
 22 18  1  0
  1 23  1  0
  1 24  1  0
  1 25  1  0
  3 26  1  0
  4 27  1  0
  7 28  1  0
  7 29  1  0
 10 30  1  0
 11 31  1  0
 12 32  1  0
 12 33  1  0
 12 34  1  0
 13 35  1  0
 13 36  1  0
 14 37  1  0
 17 38  1  0
 17 39  1  0
 20 40  1  0
 21 41  1  0
M  END
>  <Energy>  (873) 
780.99236366140656

>  <compound_id>  (873) 
50845

>  <target_id>  (873) 
1

>  <reference_id>  (873) 
54

>  <inspiration_ids>  (873) 
[80, 54]

>  <energy_score>  (873) 
706.3664807604001

>  <distance_score>  (873) 
11.119819785078539

>  <path>  (873) 
/opt/xchem-fragalysis-2/maxwin/BulkDock/SCRATCH/511021/C50845-P54/C50845-P54.minimised.mol

>  <scratch_subdir>  (873) 
/opt/xchem-fragalysis-2/maxwin/BulkDock/SCRATCH/511021/C50845-P54

>  <fragmenstein_runtime>  (873) 
30.838406324386597

>  <fragmenstein_outcome>  (873) 
too moved

>  <fragmenstein_mode>  (873) 
expansion

>  <fragmenstein_error>  (873) 


$$$$
C50846-P80
     RDKit          3D

 49 50  0  0  0  0  0  0  0  0999 V2000
    2.1570  -22.3761   29.1449 C   0  0  0  0  0  0  0  0  0  0  0  0
    1.2530  -21.2731   28.5854 C   0  0  0  0  0  0  0  0  0  0  0  0
    0.4881  -20.6046   29.7291 C   0  0  0  0  0  0  0  0  0  0  0  0
    2.1029  -20.2746   27.7716 C   0  0  0  0  0  0  0  0  0  0  0  0
    1.3428  -19.0923   27.1440 C   0  0  0  0  0  0  0  0  0  0  0  0
    0.0496  -19.6748   26.0526 C   0  0  0  0  0  0  0  0  0  0  0  0
   -1.6365  -19.5455   26.1064 N   0  0  0  0  0  0  0  0  0  0  0  0
   -2.7486  -20.5740   25.7225 C   0  0  0  0  0  0  0  0  0  0  0  0
   -2.6536  -21.7326   25.3733 O   0  0  0  0  0  0  0  0  0  0  0  0
   -4.5496  -20.0401   25.6723 C   0  0  0  0  0  0  0  0  0  0  0  0
   -6.0629  -19.9258   26.9670 C   0  0  0  0  0  0  0  0  0  0  0  0
   -7.6332  -21.0585   27.6018 C   0  0  0  0  0  0  0  0  0  0  0  0
   -7.6686  -22.4305   27.7325 N   0  0  0  0  0  0  0  0  0  0  0  0
   -9.0433  -22.9971   28.2253 C   0  0  0  0  0  0  0  0  0  0  0  0
   -9.9941  -22.0175   28.4553 C   0  0  0  0  0  0  0  0  0  0  0  0
   -9.3776  -20.8090   27.9118 N   0  0  0  0  0  0  0  0  0  0  0  0
    2.5252  -17.9173   26.8085 N   0  0  0  0  0  0  0  0  0  0  0  0
    2.8207  -16.4806   27.4887 C   0  0  0  0  0  0  0  0  0  0  0  0
    2.2581  -16.0765   28.4263 O   0  0  0  0  0  0  0  0  0  0  0  0
    4.0210  -15.0933   26.7913 C   0  0  0  0  0  0  0  0  0  0  0  0
    4.6147  -14.6040   25.6088 C   0  0  0  0  0  0  0  0  0  0  0  0
    5.7921  -13.4914   25.5415 N   0  0  0  0  0  0  0  0  0  0  0  0
    6.1906  -12.6563   26.4946 C   0  0  0  0  0  0  0  0  0  0  0  0
    5.3869  -12.8539   27.5283 C   0  0  0  0  0  0  0  0  0  0  0  0
    4.3416  -14.0134   27.5293 N   0  0  0  0  0  0  0  0  0  0  0  0
    2.6862  -22.8922   28.3369 H   0  0  0  0  0  0  0  0  0  0  0  0
    1.5685  -23.1235   29.6877 H   0  0  0  0  0  0  0  0  0  0  0  0
    2.9038  -21.9675   29.8342 H   0  0  0  0  0  0  0  0  0  0  0  0
    0.5223  -21.7583   27.9298 H   0  0  0  0  0  0  0  0  0  0  0  0
    1.1611  -20.0327   30.3766 H   0  0  0  0  0  0  0  0  0  0  0  0
   -0.0197  -21.3533   30.3468 H   0  0  0  0  0  0  0  0  0  0  0  0
   -0.2830  -19.9268   29.3502 H   0  0  0  0  0  0  0  0  0  0  0  0
    2.8893  -19.8760   28.4271 H   0  0  0  0  0  0  0  0  0  0  0  0
    2.6258  -20.8099   26.9686 H   0  0  0  0  0  0  0  0  0  0  0  0
    0.7785  -18.5672   27.9235 H   0  0  0  0  0  0  0  0  0  0  0  0
    0.3532  -19.4158   25.0402 H   0  0  0  0  0  0  0  0  0  0  0  0
    0.1495  -20.7661   26.0690 H   0  0  0  0  0  0  0  0  0  0  0  0
   -2.0709  -18.6872   26.4309 H   0  0  0  0  0  0  0  0  0  0  0  0
   -4.7992  -20.7572   24.8841 H   0  0  0  0  0  0  0  0  0  0  0  0
   -4.5121  -19.0334   25.2315 H   0  0  0  0  0  0  0  0  0  0  0  0
   -5.4716  -19.0488   27.2816 H   0  0  0  0  0  0  0  0  0  0  0  0
   -5.9303  -20.9080   27.5987 H   0  0  0  0  0  0  0  0  0  0  0  0
   -9.1583  -24.0598   28.4020 H   0  0  0  0  0  0  0  0  0  0  0  0
  -11.0077  -21.9843   28.8261 H   0  0  0  0  0  0  0  0  0  0  0  0
   -9.6039  -19.8740   28.1704 H   0  0  0  0  0  0  0  0  0  0  0  0
    3.0789  -17.9963   25.9689 H   0  0  0  0  0  0  0  0  0  0  0  0
    4.5129  -15.0577   24.6306 H   0  0  0  0  0  0  0  0  0  0  0  0
    6.9753  -11.9424   26.3497 H   0  0  0  0  0  0  0  0  0  0  0  0
    5.3735  -12.2504   28.4309 H   0  0  0  0  0  0  0  0  0  0  0  0
  1  2  1  0
  2  3  1  0
  2  4  1  0
  4  5  1  0
  5  6  1  0
  6  7  1  0
  7  8  1  0
  8  9  2  0
  8 10  1  0
 10 11  1  0
 11 12  1  0
 12 13  2  0
 13 14  1  0
 14 15  2  0
 15 16  1  0
  5 17  1  0
 17 18  1  0
 18 19  2  0
 18 20  1  0
 20 21  2  0
 21 22  1  0
 22 23  2  0
 23 24  1  0
 24 25  2  0
 16 12  1  0
 25 20  1  0
  1 26  1  0
  1 27  1  0
  1 28  1  0
  2 29  1  0
  3 30  1  0
  3 31  1  0
  3 32  1  0
  4 33  1  0
  4 34  1  0
  5 35  1  0
  6 36  1  0
  6 37  1  0
  7 38  1  0
 10 39  1  0
 10 40  1  0
 11 41  1  0
 11 42  1  0
 14 43  1  0
 15 44  1  0
 16 45  1  0
 17 46  1  0
 21 47  1  0
 23 48  1  0
 24 49  1  0
M  END
>  <Energy>  (874) 
665.01149697785092

>  <compound_id>  (874) 
50846

>  <target_id>  (874) 
1

>  <reference_id>  (874) 
80

>  <inspiration_ids>  (874) 
[80, 54]

>  <energy_score>  (874) 
540.5260465319858

>  <distance_score>  (874) 
12.234072323923556

>  <path>  (874) 
/opt/xchem-fragalysis-2/maxwin/BulkDock/SCRATCH/511021/C50846-P80/C50846-P80.minimised.mol

>  <scratch_subdir>  (874) 
/opt/xchem-fragalysis-2/maxwin/BulkDock/SCRATCH/511021/C50846-P80

>  <fragmenstein_runtime>  (874) 
60.69855546951294

>  <fragmenstein_outcome>  (874) 
too moved

>  <fragmenstein_mode>  (874) 
expansion

>  <fragmenstein_error>  (874) 


$$$$
C50846-P54
     RDKit          3D

 49 50  0  0  0  0  0  0  0  0999 V2000
    5.5004  -19.9617   20.3298 C   0  0  0  0  0  0  0  0  0  0  0  0
    4.7922  -20.6327   21.5066 C   0  0  0  0  0  0  0  0  0  0  0  0
    3.8966  -21.7701   21.0072 C   0  0  0  0  0  0  0  0  0  0  0  0
    4.0187  -19.6511   22.4241 C   0  0  0  0  0  0  0  0  0  0  0  0
    2.8907  -18.8165   21.7366 C   0  0  0  0  0  0  0  0  0  0  0  0
    1.4959  -19.3389   22.0660 C   0  0  0  0  0  0  0  0  0  0  0  0
    0.1837  -19.3811   21.4825 N   0  0  0  0  0  0  0  0  0  0  0  0
   -0.7659  -20.4634   21.3673 C   0  0  0  0  0  0  0  0  0  0  0  0
   -0.6687  -21.6241   21.6547 O   0  0  0  0  0  0  0  0  0  0  0  0
   -2.1483  -19.9903   20.8897 C   0  0  0  0  0  0  0  0  0  0  0  0
   -3.1190  -19.8226   22.0997 C   0  0  0  0  0  0  0  0  0  0  0  0
   -4.0875  -20.9465   22.3202 C   0  0  0  0  0  0  0  0  0  0  0  0
   -4.1270  -21.7553   23.3588 N   0  0  0  0  0  0  0  0  0  0  0  0
   -5.1777  -22.5987   23.1291 C   0  0  0  0  0  0  0  0  0  0  0  0
   -5.8425  -22.2664   21.9772 C   0  0  0  0  0  0  0  0  0  0  0  0
   -5.1444  -21.2047   21.4774 N   0  0  0  0  0  0  0  0  0  0  0  0
    3.3741  -17.4259   21.4822 N   0  0  0  0  0  0  0  0  0  0  0  0
    3.2885  -15.8894   22.5226 C   0  0  0  0  0  0  0  0  0  0  0  0
    2.7084  -15.8333   23.5730 O   0  0  0  0  0  0  0  0  0  0  0  0
    4.3738  -14.2652   21.9034 C   0  0  0  0  0  0  0  0  0  0  0  0
    5.9543  -14.3475   22.0893 C   0  0  0  0  0  0  0  0  0  0  0  0
    7.1619  -13.3101   23.0537 N   0  0  0  0  0  0  0  0  0  0  0  0
    6.9383  -11.6254   23.3355 C   0  0  0  0  0  0  0  0  0  0  0  0
    5.4401  -11.3287   22.9109 C   0  0  0  0  0  0  0  0  0  0  0  0
    4.2712  -12.6841   22.5917 N   0  0  0  0  0  0  0  0  0  0  0  0
    6.1796  -19.1784   20.6724 H   0  0  0  0  0  0  0  0  0  0  0  0
    6.1020  -20.6946   19.7806 H   0  0  0  0  0  0  0  0  0  0  0  0
    4.7983  -19.5188   19.6176 H   0  0  0  0  0  0  0  0  0  0  0  0
    5.5715  -21.0918   22.1301 H   0  0  0  0  0  0  0  0  0  0  0  0
    4.4894  -22.5180   20.4695 H   0  0  0  0  0  0  0  0  0  0  0  0
    3.1197  -21.4106   20.3255 H   0  0  0  0  0  0  0  0  0  0  0  0
    3.4067  -22.2768   21.8453 H   0  0  0  0  0  0  0  0  0  0  0  0
    3.6209  -20.2607   23.2392 H   0  0  0  0  0  0  0  0  0  0  0  0
    4.7335  -18.9913   22.9190 H   0  0  0  0  0  0  0  0  0  0  0  0
    2.9218  -19.1462   20.6891 H   0  0  0  0  0  0  0  0  0  0  0  0
    1.6023  -20.3573   22.4469 H   0  0  0  0  0  0  0  0  0  0  0  0
    1.2928  -18.5955   22.7965 H   0  0  0  0  0  0  0  0  0  0  0  0
   -0.2697  -18.5129   21.2200 H   0  0  0  0  0  0  0  0  0  0  0  0
   -2.0443  -19.0332   20.3683 H   0  0  0  0  0  0  0  0  0  0  0  0
   -2.5276  -20.7090   20.1544 H   0  0  0  0  0  0  0  0  0  0  0  0
   -2.5564  -19.6741   23.0252 H   0  0  0  0  0  0  0  0  0  0  0  0
   -3.7068  -18.9095   21.9402 H   0  0  0  0  0  0  0  0  0  0  0  0
   -5.4102  -23.3855   23.8183 H   0  0  0  0  0  0  0  0  0  0  0  0
   -6.7168  -22.6746   21.4894 H   0  0  0  0  0  0  0  0  0  0  0  0
   -5.3514  -20.7051   20.6249 H   0  0  0  0  0  0  0  0  0  0  0  0
    3.9732  -17.2658   20.7092 H   0  0  0  0  0  0  0  0  0  0  0  0
    6.5594  -14.9182   21.3562 H   0  0  0  0  0  0  0  0  0  0  0  0
    7.7634  -11.0650   23.7265 H   0  0  0  0  0  0  0  0  0  0  0  0
    4.9982  -10.3664   23.0724 H   0  0  0  0  0  0  0  0  0  0  0  0
  1  2  1  0
  2  3  1  0
  2  4  1  0
  4  5  1  0
  5  6  1  0
  6  7  1  0
  7  8  1  0
  8  9  2  0
  8 10  1  0
 10 11  1  0
 11 12  1  0
 12 13  2  0
 13 14  1  0
 14 15  2  0
 15 16  1  0
  5 17  1  0
 17 18  1  0
 18 19  2  0
 18 20  1  0
 20 21  2  0
 21 22  1  0
 22 23  2  0
 23 24  1  0
 24 25  2  0
 16 12  1  0
 25 20  1  0
  1 26  1  0
  1 27  1  0
  1 28  1  0
  2 29  1  0
  3 30  1  0
  3 31  1  0
  3 32  1  0
  4 33  1  0
  4 34  1  0
  5 35  1  0
  6 36  1  0
  6 37  1  0
  7 38  1  0
 10 39  1  0
 10 40  1  0
 11 41  1  0
 11 42  1  0
 14 43  1  0
 15 44  1  0
 16 45  1  0
 17 46  1  0
 21 47  1  0
 23 48  1  0
 24 49  1  0
M  END
>  <Energy>  (875) 
563.45631039673754

>  <compound_id>  (875) 
50846

>  <target_id>  (875) 
1

>  <reference_id>  (875) 
54

>  <inspiration_ids>  (875) 
[80, 54]

>  <energy_score>  (875) 
438.97085995087065

>  <distance_score>  (875) 
13.450359668472537

>  <path>  (875) 
/opt/xchem-fragalysis-2/maxwin/BulkDock/SCRATCH/511021/C50846-P54/C50846-P54.minimised.mol

>  <scratch_subdir>  (875) 
/opt/xchem-fragalysis-2/maxwin/BulkDock/SCRATCH/511021/C50846-P54

>  <fragmenstein_runtime>  (875) 
38.56369638442993

>  <fragmenstein_outcome>  (875) 
too moved

>  <fragmenstein_mode>  (875) 
expansion

>  <fragmenstein_error>  (875) 


$$$$
C28786-P80
     RDKit          3D

 36 37  0  0  0  0  0  0  0  0999 V2000
    3.0955  -14.1942   23.0905 C   0  0  0  0  0  0  0  0  0  0  0  0
    3.3472  -13.5463   21.3041 C   0  0  0  0  0  0  0  0  0  0  0  0
    4.5336  -12.5472   21.0535 C   0  0  0  0  0  0  0  0  0  0  0  0
    2.2812  -14.5131   20.0346 C   0  0  0  0  0  0  0  0  0  0  0  0
    1.5680  -14.2184   18.2063 C   0  0  0  0  0  0  0  0  0  0  0  0
   -0.4265  -13.6946   18.0365 C   0  0  0  0  0  0  0  0  0  0  0  0
   -0.7820  -12.6762   17.6188 O   0  0  0  0  0  0  0  0  0  0  0  0
   -1.6502  -14.8320   18.7033 N   0  0  0  0  0  0  0  0  0  0  0  0
   -3.0380  -14.6980   18.9198 C   0  0  0  0  0  0  0  0  0  0  0  0
   -3.6518  -15.7849   19.5776 C   0  0  0  0  0  0  0  0  0  0  0  0
   -4.8998  -15.8175   20.1032 N   0  0  0  0  0  0  0  0  0  0  0  0
   -5.5849  -14.6874   19.9426 C   0  0  0  0  0  0  0  0  0  0  0  0
   -5.1244  -13.5799   19.3263 N   0  0  0  0  0  0  0  0  0  0  0  0
   -3.8523  -13.6098   18.8198 C   0  0  0  0  0  0  0  0  0  0  0  0
    3.0590  -13.7183   18.1721 N   0  0  0  0  0  0  0  0  0  0  0  0
    4.1514  -14.5148   18.2138 C   0  0  0  0  0  0  0  0  0  0  0  0
    4.9428  -13.7416   19.0368 C   0  0  0  0  0  0  0  0  0  0  0  0
    4.6288  -12.4794   18.8895 N   0  0  0  0  0  0  0  0  0  0  0  0
    3.6107  -12.4814   18.0873 C   0  0  0  0  0  0  0  0  0  0  0  0
    3.7449  -15.0318   23.3805 H   0  0  0  0  0  0  0  0  0  0  0  0
    2.1034  -14.5114   23.3256 H   0  0  0  0  0  0  0  0  0  0  0  0
    3.2141  -13.3122   23.7392 H   0  0  0  0  0  0  0  0  0  0  0  0
    2.9741  -12.6582   21.7205 H   0  0  0  0  0  0  0  0  0  0  0  0
    5.0364  -11.7638   20.5011 H   0  0  0  0  0  0  0  0  0  0  0  0
    5.4723  -13.0897   20.9969 H   0  0  0  0  0  0  0  0  0  0  0  0
    4.3419  -11.7455   21.8220 H   0  0  0  0  0  0  0  0  0  0  0  0
    1.6567  -15.2029   20.5885 H   0  0  0  0  0  0  0  0  0  0  0  0
    2.8018  -15.2065   19.5082 H   0  0  0  0  0  0  0  0  0  0  0  0
    1.7999  -15.0980   17.6189 H   0  0  0  0  0  0  0  0  0  0  0  0
   -1.1865  -15.6010   19.0901 H   0  0  0  0  0  0  0  0  0  0  0  0
   -3.1004  -16.7100   19.7399 H   0  0  0  0  0  0  0  0  0  0  0  0
   -6.5950  -14.6511   20.3340 H   0  0  0  0  0  0  0  0  0  0  0  0
   -3.5073  -12.6796   18.3788 H   0  0  0  0  0  0  0  0  0  0  0  0
    4.2030  -15.5331   18.0196 H   0  0  0  0  0  0  0  0  0  0  0  0
    5.8357  -13.9441   19.5411 H   0  0  0  0  0  0  0  0  0  0  0  0
    3.3160  -11.6409   17.4601 H   0  0  0  0  0  0  0  0  0  0  0  0
  1  2  1  0
  2  3  1  0
  2  4  1  0
  4  5  1  0
  5  6  1  0
  6  7  2  0
  6  8  1  0
  8  9  1  0
  9 10  2  0
 10 11  1  0
 11 12  2  0
 12 13  1  0
 13 14  2  0
  5 15  1  0
 15 16  1  0
 16 17  2  0
 17 18  1  0
 18 19  2  0
 14  9  1  0
 19 15  1  0
  1 20  1  0
  1 21  1  0
  1 22  1  0
  2 23  1  0
  3 24  1  0
  3 25  1  0
  3 26  1  0
  4 27  1  0
  4 28  1  0
  5 29  1  0
  8 30  1  0
 10 31  1  0
 12 32  1  0
 14 33  1  0
 16 34  1  0
 17 35  1  0
 19 36  1  0
M  END
>  <Energy>  (876) 
553.53098949588275

>  <compound_id>  (876) 
28786

>  <target_id>  (876) 
1

>  <reference_id>  (876) 
80

>  <inspiration_ids>  (876) 
[80, 54]

>  <energy_score>  (876) 
476.5010208258945

>  <distance_score>  (876) 
14.650416309666593

>  <path>  (876) 
/opt/xchem-fragalysis-2/maxwin/BulkDock/SCRATCH/511021/C28786-P80/C28786-P80.minimised.mol

>  <scratch_subdir>  (876) 
/opt/xchem-fragalysis-2/maxwin/BulkDock/SCRATCH/511021/C28786-P80

>  <fragmenstein_runtime>  (876) 
19.461915731430054

>  <fragmenstein_outcome>  (876) 
too moved

>  <fragmenstein_mode>  (876) 
expansion

>  <fragmenstein_error>  (876) 


$$$$
C28786-P54
     RDKit          3D

 36 37  0  0  0  0  0  0  0  0999 V2000
    2.7088  -15.5424   25.1316 C   0  0  0  0  0  0  0  0  0  0  0  0
    3.1121  -16.0480   23.5993 C   0  0  0  0  0  0  0  0  0  0  0  0
    3.8303  -14.8597   22.1997 C   0  0  0  0  0  0  0  0  0  0  0  0
    2.4866  -17.5339   23.5185 C   0  0  0  0  0  0  0  0  0  0  0  0
    2.7835  -18.5781   24.6548 C   0  0  0  0  0  0  0  0  0  0  0  0
    1.6528  -18.6654   25.7635 C   0  0  0  0  0  0  0  0  0  0  0  0
    1.8906  -18.3128   26.8860 O   0  0  0  0  0  0  0  0  0  0  0  0
    0.4206  -19.2204   25.1727 N   0  0  0  0  0  0  0  0  0  0  0  0
   -0.8268  -19.5430   25.7609 C   0  0  0  0  0  0  0  0  0  0  0  0
   -1.1815  -19.2892   27.0741 C   0  0  0  0  0  0  0  0  0  0  0  0
   -2.3927  -19.5896   27.6223 N   0  0  0  0  0  0  0  0  0  0  0  0
   -3.2799  -20.1729   26.8042 C   0  0  0  0  0  0  0  0  0  0  0  0
   -3.0630  -20.4883   25.5218 N   0  0  0  0  0  0  0  0  0  0  0  0
   -1.8385  -20.1592   25.0339 C   0  0  0  0  0  0  0  0  0  0  0  0
    4.1941  -18.5679   25.1027 N   0  0  0  0  0  0  0  0  0  0  0  0
    5.2202  -19.1853   24.4233 C   0  0  0  0  0  0  0  0  0  0  0  0
    6.3703  -18.8690   25.1079 C   0  0  0  0  0  0  0  0  0  0  0  0
    6.0815  -18.0687   26.1745 N   0  0  0  0  0  0  0  0  0  0  0  0
    4.7693  -17.9837   26.1968 C   0  0  0  0  0  0  0  0  0  0  0  0
    3.0328  -14.5338   25.3796 H   0  0  0  0  0  0  0  0  0  0  0  0
    1.6806  -15.6935   25.4605 H   0  0  0  0  0  0  0  0  0  0  0  0
    3.2037  -16.1504   25.8828 H   0  0  0  0  0  0  0  0  0  0  0  0
    4.0104  -16.6084   23.7450 H   0  0  0  0  0  0  0  0  0  0  0  0
    4.9065  -14.6946   21.9722 H   0  0  0  0  0  0  0  0  0  0  0  0
    3.3054  -15.1477   21.3591 H   0  0  0  0  0  0  0  0  0  0  0  0
    3.8467  -13.7110   22.2161 H   0  0  0  0  0  0  0  0  0  0  0  0
    2.8731  -18.0179   22.6108 H   0  0  0  0  0  0  0  0  0  0  0  0
    1.3976  -17.4640   23.5133 H   0  0  0  0  0  0  0  0  0  0  0  0
    2.7082  -19.5674   24.1721 H   0  0  0  0  0  0  0  0  0  0  0  0
    0.6031  -19.4852   24.2081 H   0  0  0  0  0  0  0  0  0  0  0  0
   -0.4865  -18.8147   27.7624 H   0  0  0  0  0  0  0  0  0  0  0  0
   -4.2555  -20.4049   27.2117 H   0  0  0  0  0  0  0  0  0  0  0  0
   -1.6985  -20.4151   23.9864 H   0  0  0  0  0  0  0  0  0  0  0  0
    5.0491  -19.7716   23.5310 H   0  0  0  0  0  0  0  0  0  0  0  0
    7.3883  -19.1609   24.8833 H   0  0  0  0  0  0  0  0  0  0  0  0
    4.2085  -17.5119   26.9931 H   0  0  0  0  0  0  0  0  0  0  0  0
  1  2  1  0
  2  3  1  0
  2  4  1  0
  4  5  1  0
  5  6  1  0
  6  7  2  0
  6  8  1  0
  8  9  1  0
  9 10  2  0
 10 11  1  0
 11 12  2  0
 12 13  1  0
 13 14  2  0
  5 15  1  0
 15 16  1  0
 16 17  2  0
 17 18  1  0
 18 19  2  0
 14  9  1  0
 19 15  1  0
  1 20  1  0
  1 21  1  0
  1 22  1  0
  2 23  1  0
  3 24  1  0
  3 25  1  0
  3 26  1  0
  4 27  1  0
  4 28  1  0
  5 29  1  0
  8 30  1  0
 10 31  1  0
 12 32  1  0
 14 33  1  0
 16 34  1  0
 17 35  1  0
 19 36  1  0
M  END
>  <Energy>  (877) 
163.36574369701907

>  <compound_id>  (877) 
28786

>  <target_id>  (877) 
1

>  <reference_id>  (877) 
54

>  <inspiration_ids>  (877) 
[80, 54]

>  <energy_score>  (877) 
86.33577502703855

>  <distance_score>  (877) 
15.50404200496741

>  <path>  (877) 
/opt/xchem-fragalysis-2/maxwin/BulkDock/SCRATCH/511021/C28786-P54/C28786-P54.minimised.mol

>  <scratch_subdir>  (877) 
/opt/xchem-fragalysis-2/maxwin/BulkDock/SCRATCH/511021/C28786-P54

>  <fragmenstein_runtime>  (877) 
24.68539047241211

>  <fragmenstein_outcome>  (877) 
too moved

>  <fragmenstein_mode>  (877) 
expansion

>  <fragmenstein_error>  (877) 


$$$$
C50847-P80
     RDKit          3D

 43 45  0  0  0  0  0  0  0  0999 V2000
    1.2346  -14.0644   17.7227 C   0  0  0  0  0  0  0  0  0  0  0  0
    1.8796  -15.1339   18.4967 C   0  0  0  0  0  0  0  0  0  0  0  0
    2.7432  -15.7128   17.4786 C   0  0  0  0  0  0  0  0  0  0  0  0
    0.7533  -16.0508   19.7659 C   0  0  0  0  0  0  0  0  0  0  0  0
    1.1567  -15.1981   20.9586 C   0  0  0  0  0  0  0  0  0  0  0  0
   -0.3476  -16.0315   22.0175 C   0  0  0  0  0  0  0  0  0  0  0  0
   -0.5866  -17.1932   21.5409 O   0  0  0  0  0  0  0  0  0  0  0  0
   -1.2687  -15.3566   23.7328 N   0  0  0  0  0  0  0  0  0  0  0  0
   -2.4439  -16.2673   25.0082 C   0  0  0  0  0  0  0  0  0  0  0  0
   -2.4325  -16.4506   26.7860 C   0  0  0  0  0  0  0  0  0  0  0  0
   -3.3568  -17.2782   27.4031 N   0  0  0  0  0  0  0  0  0  0  0  0
   -3.7397  -18.0548   26.4530 N   0  0  0  0  0  0  0  0  0  0  0  0
   -2.5523  -17.9672   25.7687 C   0  0  0  0  0  0  0  0  0  0  0  0
   -1.9226  -19.3712   25.8499 C   0  0  0  0  0  0  0  0  0  0  0  0
   -2.7140  -20.4727   26.2908 C   0  0  0  0  0  0  0  0  0  0  0  0
   -2.2997  -21.7635   26.3098 N   0  0  0  0  0  0  0  0  0  0  0  0
   -1.0583  -21.9338   25.8262 C   0  0  0  0  0  0  0  0  0  0  0  0
   -0.2753  -20.8675   25.3893 C   0  0  0  0  0  0  0  0  0  0  0  0
   -0.6763  -19.5655   25.4042 N   0  0  0  0  0  0  0  0  0  0  0  0
    2.7586  -14.0524   20.6856 N   0  0  0  0  0  0  0  0  0  0  0  0
    3.5749  -13.0035   21.4135 C   0  0  0  0  0  0  0  0  0  0  0  0
    4.7338  -12.4795   20.7441 C   0  0  0  0  0  0  0  0  0  0  0  0
    5.0307  -12.9372   19.5936 N   0  0  0  0  0  0  0  0  0  0  0  0
    3.8908  -13.4840   19.3323 C   0  0  0  0  0  0  0  0  0  0  0  0
    1.1793  -14.1754   16.6548 H   0  0  0  0  0  0  0  0  0  0  0  0
    2.0671  -13.5406   18.0118 H   0  0  0  0  0  0  0  0  0  0  0  0
    0.3148  -13.5686   17.9935 H   0  0  0  0  0  0  0  0  0  0  0  0
    2.6487  -14.9607   19.1171 H   0  0  0  0  0  0  0  0  0  0  0  0
    3.7874  -15.4219   17.6646 H   0  0  0  0  0  0  0  0  0  0  0  0
    2.3727  -16.7699   17.4199 H   0  0  0  0  0  0  0  0  0  0  0  0
    2.5787  -15.5076   16.4601 H   0  0  0  0  0  0  0  0  0  0  0  0
   -0.3472  -15.8538   19.7311 H   0  0  0  0  0  0  0  0  0  0  0  0
    0.6476  -17.1078   19.7746 H   0  0  0  0  0  0  0  0  0  0  0  0
    0.7323  -14.7421   21.8992 H   0  0  0  0  0  0  0  0  0  0  0  0
   -0.8780  -14.4442   23.9915 H   0  0  0  0  0  0  0  0  0  0  0  0
   -1.9761  -15.7291   27.4831 H   0  0  0  0  0  0  0  0  0  0  0  0
   -3.7643  -17.2847   28.3397 H   0  0  0  0  0  0  0  0  0  0  0  0
   -3.7453  -20.3493   26.6097 H   0  0  0  0  0  0  0  0  0  0  0  0
   -0.6899  -22.9531   25.7912 H   0  0  0  0  0  0  0  0  0  0  0  0
    0.7245  -21.0366   24.9969 H   0  0  0  0  0  0  0  0  0  0  0  0
    3.2627  -12.6820   22.4093 H   0  0  0  0  0  0  0  0  0  0  0  0
    5.3779  -11.6597   21.0379 H   0  0  0  0  0  0  0  0  0  0  0  0
    3.6938  -13.8305   18.3654 H   0  0  0  0  0  0  0  0  0  0  0  0
  1  2  1  0
  2  3  1  0
  2  4  1  0
  4  5  1  0
  5  6  1  0
  6  7  2  0
  6  8  1  0
  8  9  1  0
  9 10  2  0
 10 11  1  0
 11 12  1  0
 12 13  2  0
 13 14  1  0
 14 15  2  0
 15 16  1  0
 16 17  2  0
 17 18  1  0
 18 19  2  0
  5 20  1  0
 20 21  1  0
 21 22  2  0
 22 23  1  0
 23 24  2  0
 13  9  1  0
 19 14  1  0
 24 20  1  0
  1 25  1  0
  1 26  1  0
  1 27  1  0
  2 28  1  0
  3 29  1  0
  3 30  1  0
  3 31  1  0
  4 32  1  0
  4 33  1  0
  5 34  1  0
  8 35  1  0
 10 36  1  0
 11 37  1  0
 15 38  1  0
 17 39  1  0
 18 40  1  0
 21 41  1  0
 22 42  1  0
 24 43  1  0
M  END
>  <Energy>  (878) 
1200.1501747384382

>  <compound_id>  (878) 
50847

>  <target_id>  (878) 
1

>  <reference_id>  (878) 
80

>  <inspiration_ids>  (878) 
[80, 54]

>  <energy_score>  (878) 
1034.4496264842119

>  <distance_score>  (878) 
12.254384613321195

>  <path>  (878) 
/opt/xchem-fragalysis-2/maxwin/BulkDock/SCRATCH/511021/C50847-P80/C50847-P80.minimised.mol

>  <scratch_subdir>  (878) 
/opt/xchem-fragalysis-2/maxwin/BulkDock/SCRATCH/511021/C50847-P80

>  <fragmenstein_runtime>  (878) 
41.712703227996826

>  <fragmenstein_outcome>  (878) 
too moved

>  <fragmenstein_mode>  (878) 
expansion

>  <fragmenstein_error>  (878) 


$$$$
C50847-P54
     RDKit          3D

 43 45  0  0  0  0  0  0  0  0999 V2000
    5.6097  -21.6995   29.2610 C   0  0  0  0  0  0  0  0  0  0  0  0
    5.6479  -22.1816   27.8140 C   0  0  0  0  0  0  0  0  0  0  0  0
    6.0301  -23.6670   27.7850 C   0  0  0  0  0  0  0  0  0  0  0  0
    4.3165  -21.9868   27.0548 C   0  0  0  0  0  0  0  0  0  0  0  0
    3.7650  -20.5465   26.8833 C   0  0  0  0  0  0  0  0  0  0  0  0
    2.8246  -20.1826   28.1086 C   0  0  0  0  0  0  0  0  0  0  0  0
    3.3356  -19.6397   29.0528 O   0  0  0  0  0  0  0  0  0  0  0  0
    1.4315  -20.6681   27.9088 N   0  0  0  0  0  0  0  0  0  0  0  0
    0.3442  -20.7169   28.7893 C   0  0  0  0  0  0  0  0  0  0  0  0
    0.4703  -20.5588   30.1543 C   0  0  0  0  0  0  0  0  0  0  0  0
   -0.7615  -20.7298   30.7086 N   0  0  0  0  0  0  0  0  0  0  0  0
   -1.7254  -20.9085   29.8046 N   0  0  0  0  0  0  0  0  0  0  0  0
   -1.0894  -20.9053   28.6118 C   0  0  0  0  0  0  0  0  0  0  0  0
   -1.9231  -21.0090   27.4112 C   0  0  0  0  0  0  0  0  0  0  0  0
   -3.1786  -20.3946   27.3893 C   0  0  0  0  0  0  0  0  0  0  0  0
   -4.0512  -20.4984   26.3560 N   0  0  0  0  0  0  0  0  0  0  0  0
   -3.6082  -21.2366   25.3185 C   0  0  0  0  0  0  0  0  0  0  0  0
   -2.3560  -21.8327   25.3214 C   0  0  0  0  0  0  0  0  0  0  0  0
   -1.4787  -21.7334   26.3577 N   0  0  0  0  0  0  0  0  0  0  0  0
    4.8214  -19.5646   26.4504 N   0  0  0  0  0  0  0  0  0  0  0  0
    5.5858  -19.7029   25.3010 C   0  0  0  0  0  0  0  0  0  0  0  0
    6.5897  -18.7730   25.4086 C   0  0  0  0  0  0  0  0  0  0  0  0
    6.3577  -17.9394   26.4603 N   0  0  0  0  0  0  0  0  0  0  0  0
    5.2966  -18.4340   27.0681 C   0  0  0  0  0  0  0  0  0  0  0  0
    4.7401  -22.0985   29.7934 H   0  0  0  0  0  0  0  0  0  0  0  0
    5.5840  -20.6086   29.3111 H   0  0  0  0  0  0  0  0  0  0  0  0
    6.5085  -22.0152   29.8022 H   0  0  0  0  0  0  0  0  0  0  0  0
    6.4455  -21.6375   27.2954 H   0  0  0  0  0  0  0  0  0  0  0  0
    7.0000  -23.8297   28.2672 H   0  0  0  0  0  0  0  0  0  0  0  0
    6.1084  -24.0296   26.7545 H   0  0  0  0  0  0  0  0  0  0  0  0
    5.2857  -24.2791   28.3057 H   0  0  0  0  0  0  0  0  0  0  0  0
    4.4540  -22.4042   26.0470 H   0  0  0  0  0  0  0  0  0  0  0  0
    3.5452  -22.6116   27.5252 H   0  0  0  0  0  0  0  0  0  0  0  0
    3.1098  -20.6007   26.0044 H   0  0  0  0  0  0  0  0  0  0  0  0
    1.3276  -21.0021   26.9555 H   0  0  0  0  0  0  0  0  0  0  0  0
    1.3351  -20.3786   30.7781 H   0  0  0  0  0  0  0  0  0  0  0  0
   -1.0169  -20.7158   31.6922 H   0  0  0  0  0  0  0  0  0  0  0  0
   -3.5088  -19.7773   28.2165 H   0  0  0  0  0  0  0  0  0  0  0  0
   -4.2823  -21.3477   24.4782 H   0  0  0  0  0  0  0  0  0  0  0  0
   -2.0189  -22.4199   24.4735 H   0  0  0  0  0  0  0  0  0  0  0  0
    5.4167  -20.5065   24.5985 H   0  0  0  0  0  0  0  0  0  0  0  0
    7.4655  -18.6627   24.7869 H   0  0  0  0  0  0  0  0  0  0  0  0
    4.8691  -18.0387   27.9806 H   0  0  0  0  0  0  0  0  0  0  0  0
  1  2  1  0
  2  3  1  0
  2  4  1  0
  4  5  1  0
  5  6  1  0
  6  7  2  0
  6  8  1  0
  8  9  1  0
  9 10  2  0
 10 11  1  0
 11 12  1  0
 12 13  2  0
 13 14  1  0
 14 15  2  0
 15 16  1  0
 16 17  2  0
 17 18  1  0
 18 19  2  0
  5 20  1  0
 20 21  1  0
 21 22  2  0
 22 23  1  0
 23 24  2  0
 13  9  1  0
 19 14  1  0
 24 20  1  0
  1 25  1  0
  1 26  1  0
  1 27  1  0
  2 28  1  0
  3 29  1  0
  3 30  1  0
  3 31  1  0
  4 32  1  0
  4 33  1  0
  5 34  1  0
  8 35  1  0
 10 36  1  0
 11 37  1  0
 15 38  1  0
 17 39  1  0
 18 40  1  0
 21 41  1  0
 22 42  1  0
 24 43  1  0
M  END
>  <Energy>  (879) 
125.12680293461364

>  <compound_id>  (879) 
50847

>  <target_id>  (879) 
1

>  <reference_id>  (879) 
54

>  <inspiration_ids>  (879) 
[80, 54]

>  <energy_score>  (879) 
-40.573745319627164

>  <distance_score>  (879) 
14.18477651899572

>  <path>  (879) 
/opt/xchem-fragalysis-2/maxwin/BulkDock/SCRATCH/511021/C50847-P54/C50847-P54.minimised.mol

>  <scratch_subdir>  (879) 
/opt/xchem-fragalysis-2/maxwin/BulkDock/SCRATCH/511021/C50847-P54

>  <fragmenstein_runtime>  (879) 
40.67733430862427

>  <fragmenstein_outcome>  (879) 
too moved

>  <fragmenstein_mode>  (879) 
expansion

>  <fragmenstein_error>  (879) 


$$$$
C50848-P80
     RDKit          3D

 47 48  0  0  0  0  0  0  0  0999 V2000
   -3.9020  -23.3132   27.1151 C   0  0  0  0  0  0  0  0  0  0  0  0
   -2.6274  -22.5690   26.8007 C   0  0  0  0  0  0  0  0  0  0  0  0
   -2.8194  -21.3722   25.6750 C   0  0  0  0  0  0  0  0  0  0  0  0
   -3.1566  -19.7645   25.3245 C   0  0  0  0  0  0  0  0  0  0  0  0
   -4.2382  -19.7083   24.7274 O   0  0  0  0  0  0  0  0  0  0  0  0
   -2.0581  -18.1922   25.5904 N   0  0  0  0  0  0  0  0  0  0  0  0
   -2.2559  -16.2675   24.9192 C   0  0  0  0  0  0  0  0  0  0  0  0
   -0.8972  -14.7222   24.3745 C   0  0  0  0  0  0  0  0  0  0  0  0
   -0.9783  -14.8059   22.5788 C   0  0  0  0  0  0  0  0  0  0  0  0
    0.8877  -14.0807   23.6952 N   0  0  0  0  0  0  0  0  0  0  0  0
    1.9489  -12.6375   24.1727 C   0  0  0  0  0  0  0  0  0  0  0  0
    1.7019  -11.9114   25.0957 O   0  0  0  0  0  0  0  0  0  0  0  0
    3.4952  -12.1043   23.0352 C   0  0  0  0  0  0  0  0  0  0  0  0
    5.1335  -10.8253   22.9118 C   0  0  0  0  0  0  0  0  0  0  0  0
    5.6054   -9.3961   23.0740 C   0  0  0  0  0  0  0  0  0  0  0  0
    6.8590   -9.1216   22.5476 N   0  0  0  0  0  0  0  0  0  0  0  0
    7.4064  -10.2954   22.5265 C   0  0  0  0  0  0  0  0  0  0  0  0
    6.6071  -11.0979   23.3052 N   0  0  0  0  0  0  0  0  0  0  0  0
    7.1360  -11.5562   24.5865 C   0  0  0  0  0  0  0  0  0  0  0  0
   -2.8488  -22.1476   24.3465 N   0  0  0  0  0  0  0  0  0  0  0  0
   -3.9689  -22.5882   23.6888 C   0  0  0  0  0  0  0  0  0  0  0  0
   -3.6908  -23.6559   22.9827 N   0  0  0  0  0  0  0  0  0  0  0  0
   -2.3528  -23.7944   23.1666 C   0  0  0  0  0  0  0  0  0  0  0  0
   -1.7816  -22.9097   23.9907 N   0  0  0  0  0  0  0  0  0  0  0  0
   -3.6887  -23.9874   27.9489 H   0  0  0  0  0  0  0  0  0  0  0  0
   -4.7470  -22.6783   27.3804 H   0  0  0  0  0  0  0  0  0  0  0  0
   -4.1731  -23.8800   26.2260 H   0  0  0  0  0  0  0  0  0  0  0  0
   -2.1343  -22.2508   27.7320 H   0  0  0  0  0  0  0  0  0  0  0  0
   -1.9446  -23.3449   26.4199 H   0  0  0  0  0  0  0  0  0  0  0  0
   -3.9160  -21.4784   25.8120 H   0  0  0  0  0  0  0  0  0  0  0  0
   -1.2628  -18.4383   26.1697 H   0  0  0  0  0  0  0  0  0  0  0  0
   -2.5324  -15.8972   25.8551 H   0  0  0  0  0  0  0  0  0  0  0  0
   -3.1396  -15.8742   24.4284 H   0  0  0  0  0  0  0  0  0  0  0  0
   -1.2321  -13.8828   24.9955 H   0  0  0  0  0  0  0  0  0  0  0  0
   -0.4233  -15.6460   22.0168 H   0  0  0  0  0  0  0  0  0  0  0  0
   -0.3025  -14.0361   22.3255 H   0  0  0  0  0  0  0  0  0  0  0  0
   -1.8254  -14.6759   21.8561 H   0  0  0  0  0  0  0  0  0  0  0  0
    1.3253  -14.5764   22.9646 H   0  0  0  0  0  0  0  0  0  0  0  0
    3.4724  -12.5627   22.0537 H   0  0  0  0  0  0  0  0  0  0  0  0
    3.7646  -12.8468   23.7555 H   0  0  0  0  0  0  0  0  0  0  0  0
    5.0416   -8.4970   23.2802 H   0  0  0  0  0  0  0  0  0  0  0  0
    8.4089  -10.5540   22.2126 H   0  0  0  0  0  0  0  0  0  0  0  0
    7.4551  -10.6772   25.1556 H   0  0  0  0  0  0  0  0  0  0  0  0
    6.3894  -12.0973   25.1582 H   0  0  0  0  0  0  0  0  0  0  0  0
    8.0038  -12.1906   24.3920 H   0  0  0  0  0  0  0  0  0  0  0  0
   -4.9351  -22.1266   23.7795 H   0  0  0  0  0  0  0  0  0  0  0  0
   -1.7693  -24.5697   22.6870 H   0  0  0  0  0  0  0  0  0  0  0  0
  1  2  1  0
  2  3  1  0
  3  4  1  0
  4  5  2  0
  4  6  1  0
  6  7  1  0
  7  8  1  0
  8  9  1  0
  8 10  1  0
 10 11  1  0
 11 12  2  0
 11 13  1  0
 13 14  1  0
 14 15  2  0
 15 16  1  0
 16 17  2  0
 17 18  1  0
 18 19  1  0
  3 20  1  0
 20 21  1  0
 21 22  2  0
 22 23  1  0
 23 24  2  0
 18 14  1  0
 24 20  1  0
  1 25  1  0
  1 26  1  0
  1 27  1  0
  2 28  1  0
  2 29  1  0
  3 30  1  0
  6 31  1  0
  7 32  1  0
  7 33  1  0
  8 34  1  0
  9 35  1  0
  9 36  1  0
  9 37  1  0
 10 38  1  0
 13 39  1  0
 13 40  1  0
 15 41  1  0
 17 42  1  0
 19 43  1  0
 19 44  1  0
 19 45  1  0
 21 46  1  0
 23 47  1  0
M  END
>  <Energy>  (880) 
926.04942289540452

>  <compound_id>  (880) 
50848

>  <target_id>  (880) 
1

>  <reference_id>  (880) 
80

>  <inspiration_ids>  (880) 
[80, 54]

>  <energy_score>  (880) 
863.3207301991474

>  <distance_score>  (880) 
11.104623841556817

>  <path>  (880) 
/opt/xchem-fragalysis-2/maxwin/BulkDock/SCRATCH/511021/C50848-P80/C50848-P80.minimised.mol

>  <scratch_subdir>  (880) 
/opt/xchem-fragalysis-2/maxwin/BulkDock/SCRATCH/511021/C50848-P80

>  <fragmenstein_runtime>  (880) 
27.461602926254272

>  <fragmenstein_outcome>  (880) 
too moved

>  <fragmenstein_mode>  (880) 
expansion

>  <fragmenstein_error>  (880) 


$$$$
C50848-P54
     RDKit          3D

 47 48  0  0  0  0  0  0  0  0999 V2000
   -3.9228  -21.3093   29.2135 C   0  0  0  0  0  0  0  0  0  0  0  0
   -4.2454  -21.0287   27.5427 C   0  0  0  0  0  0  0  0  0  0  0  0
   -4.9568  -19.8788   26.6903 C   0  0  0  0  0  0  0  0  0  0  0  0
   -4.3243  -18.7247   25.0863 C   0  0  0  0  0  0  0  0  0  0  0  0
   -4.7160  -18.6978   23.9585 O   0  0  0  0  0  0  0  0  0  0  0  0
   -2.7354  -17.6467   25.6328 N   0  0  0  0  0  0  0  0  0  0  0  0
   -1.8377  -16.5713   24.8366 C   0  0  0  0  0  0  0  0  0  0  0  0
   -0.6266  -15.6452   25.9457 C   0  0  0  0  0  0  0  0  0  0  0  0
   -2.0329  -14.5299   25.9124 C   0  0  0  0  0  0  0  0  0  0  0  0
    1.0631  -14.7493   25.6431 N   0  0  0  0  0  0  0  0  0  0  0  0
    1.6333  -13.5577   26.2415 C   0  0  0  0  0  0  0  0  0  0  0  0
    1.2059  -12.9325   27.1446 O   0  0  0  0  0  0  0  0  0  0  0  0
    3.2722  -12.5810   25.4254 C   0  0  0  0  0  0  0  0  0  0  0  0
    4.1837  -10.8544   24.9096 C   0  0  0  0  0  0  0  0  0  0  0  0
    5.0241  -10.5262   23.6815 C   0  0  0  0  0  0  0  0  0  0  0  0
    5.8371   -9.4409   23.5528 N   0  0  0  0  0  0  0  0  0  0  0  0
    5.6301   -8.7832   24.6402 C   0  0  0  0  0  0  0  0  0  0  0  0
    4.6645   -9.3675   25.4601 N   0  0  0  0  0  0  0  0  0  0  0  0
    4.1378   -8.4871   26.5230 C   0  0  0  0  0  0  0  0  0  0  0  0
   -6.2220  -20.7477   27.5463 N   0  0  0  0  0  0  0  0  0  0  0  0
   -7.4896  -20.5285   27.5520 C   0  0  0  0  0  0  0  0  0  0  0  0
   -8.2370  -21.5107   28.0606 N   0  0  0  0  0  0  0  0  0  0  0  0
   -7.2882  -22.1398   28.9345 C   0  0  0  0  0  0  0  0  0  0  0  0
   -6.1245  -21.4961   28.7500 N   0  0  0  0  0  0  0  0  0  0  0  0
   -2.8592  -21.5723   29.3672 H   0  0  0  0  0  0  0  0  0  0  0  0
   -4.1188  -20.4379   29.8393 H   0  0  0  0  0  0  0  0  0  0  0  0
   -4.3305  -22.2130   29.6362 H   0  0  0  0  0  0  0  0  0  0  0  0
   -3.2960  -21.5063   27.3692 H   0  0  0  0  0  0  0  0  0  0  0  0
   -4.6230  -21.6948   26.8042 H   0  0  0  0  0  0  0  0  0  0  0  0
   -5.5756  -19.0920   27.0400 H   0  0  0  0  0  0  0  0  0  0  0  0
   -2.6020  -17.7245   26.6124 H   0  0  0  0  0  0  0  0  0  0  0  0
   -0.8220  -16.6952   24.5667 H   0  0  0  0  0  0  0  0  0  0  0  0
   -2.3877  -15.9707   24.1514 H   0  0  0  0  0  0  0  0  0  0  0  0
   -0.5516  -15.9912   26.9467 H   0  0  0  0  0  0  0  0  0  0  0  0
   -2.9296  -14.9432   26.3604 H   0  0  0  0  0  0  0  0  0  0  0  0
   -1.8220  -13.4665   26.1204 H   0  0  0  0  0  0  0  0  0  0  0  0
   -2.5722  -14.5194   25.0085 H   0  0  0  0  0  0  0  0  0  0  0  0
    1.7038  -15.0948   24.9635 H   0  0  0  0  0  0  0  0  0  0  0  0
    2.5231  -11.9485   24.8857 H   0  0  0  0  0  0  0  0  0  0  0  0
    3.7129  -13.2832   24.7371 H   0  0  0  0  0  0  0  0  0  0  0  0
    4.9025  -11.1453   22.8438 H   0  0  0  0  0  0  0  0  0  0  0  0
    6.1088   -7.8474   24.9020 H   0  0  0  0  0  0  0  0  0  0  0  0
    3.0458   -8.5178   26.5217 H   0  0  0  0  0  0  0  0  0  0  0  0
    4.5886   -8.7847   27.4737 H   0  0  0  0  0  0  0  0  0  0  0  0
    4.4293   -7.4538   26.3077 H   0  0  0  0  0  0  0  0  0  0  0  0
   -7.7067  -19.5881   27.1159 H   0  0  0  0  0  0  0  0  0  0  0  0
   -7.5630  -22.9368   29.6137 H   0  0  0  0  0  0  0  0  0  0  0  0
  1  2  1  0
  2  3  1  0
  3  4  1  0
  4  5  2  0
  4  6  1  0
  6  7  1  0
  7  8  1  0
  8  9  1  0
  8 10  1  0
 10 11  1  0
 11 12  2  0
 11 13  1  0
 13 14  1  0
 14 15  2  0
 15 16  1  0
 16 17  2  0
 17 18  1  0
 18 19  1  0
  3 20  1  0
 20 21  1  0
 21 22  2  0
 22 23  1  0
 23 24  2  0
 18 14  1  0
 24 20  1  0
  1 25  1  0
  1 26  1  0
  1 27  1  0
  2 28  1  0
  2 29  1  0
  3 30  1  0
  6 31  1  0
  7 32  1  0
  7 33  1  0
  8 34  1  0
  9 35  1  0
  9 36  1  0
  9 37  1  0
 10 38  1  0
 13 39  1  0
 13 40  1  0
 15 41  1  0
 17 42  1  0
 19 43  1  0
 19 44  1  0
 19 45  1  0
 21 46  1  0
 23 47  1  0
M  END
>  <Energy>  (881) 
937.99352030413399

>  <compound_id>  (881) 
50848

>  <target_id>  (881) 
1

>  <reference_id>  (881) 
54

>  <inspiration_ids>  (881) 
[80, 54]

>  <energy_score>  (881) 
875.2648276078842

>  <distance_score>  (881) 
10.574241157104325

>  <path>  (881) 
/opt/xchem-fragalysis-2/maxwin/BulkDock/SCRATCH/511021/C50848-P54/C50848-P54.minimised.mol

>  <scratch_subdir>  (881) 
/opt/xchem-fragalysis-2/maxwin/BulkDock/SCRATCH/511021/C50848-P54

>  <fragmenstein_runtime>  (881) 
29.476309299468994

>  <fragmenstein_outcome>  (881) 
too moved

>  <fragmenstein_mode>  (881) 
expansion

>  <fragmenstein_error>  (881) 


$$$$
C50849-P80
     RDKit          3D

 42 43  0  0  0  0  0  0  0  0999 V2000
   -6.1636  -21.7213   22.1218 C   0  0  0  0  0  0  0  0  0  0  0  0
   -5.7580  -20.4491   21.4708 C   0  0  0  0  0  0  0  0  0  0  0  0
   -4.5715  -19.8708   21.4964 N   0  0  0  0  0  0  0  0  0  0  0  0
   -4.6233  -18.8011   20.5953 C   0  0  0  0  0  0  0  0  0  0  0  0
   -3.4381  -17.8537   20.4950 C   0  0  0  0  0  0  0  0  0  0  0  0
   -3.0556  -17.0243   19.2281 C   0  0  0  0  0  0  0  0  0  0  0  0
   -3.5413  -17.3203   18.1691 O   0  0  0  0  0  0  0  0  0  0  0  0
   -2.0484  -15.9536   19.5798 N   0  0  0  0  0  0  0  0  0  0  0  0
   -1.3233  -14.7028   18.6086 C   0  0  0  0  0  0  0  0  0  0  0  0
    0.5722  -13.9955   17.8912 C   0  0  0  0  0  0  0  0  0  0  0  0
    1.6971  -15.1574   18.5815 O   0  0  0  0  0  0  0  0  0  0  0  0
    2.3627  -13.6221   18.0248 C   0  0  0  0  0  0  0  0  0  0  0  0
    3.3302  -11.9308   17.9117 N   0  0  0  0  0  0  0  0  0  0  0  0
    2.7543  -10.1257   17.8706 C   0  0  0  0  0  0  0  0  0  0  0  0
    1.6341   -9.6418   17.8087 O   0  0  0  0  0  0  0  0  0  0  0  0
    3.8019   -9.0012   18.0760 C   0  0  0  0  0  0  0  0  0  0  0  0
    4.5579   -7.2654   17.9596 N   0  0  0  0  0  0  0  0  0  0  0  0
    5.7512   -7.0844   18.4622 N   0  0  0  0  0  0  0  0  0  0  0  0
    5.9825   -5.8494   18.1495 C   0  0  0  0  0  0  0  0  0  0  0  0
    5.1218   -5.5093   17.1594 C   0  0  0  0  0  0  0  0  0  0  0  0
    4.5801   -6.5846   16.7568 N   0  0  0  0  0  0  0  0  0  0  0  0
   -5.9115  -18.7010   20.1124 C   0  0  0  0  0  0  0  0  0  0  0  0
   -6.6174  -19.7322   20.6782 N   0  0  0  0  0  0  0  0  0  0  0  0
   -7.1866  -21.6639   22.4993 H   0  0  0  0  0  0  0  0  0  0  0  0
   -6.1231  -22.5364   21.3915 H   0  0  0  0  0  0  0  0  0  0  0  0
   -5.4717  -21.9699   22.9301 H   0  0  0  0  0  0  0  0  0  0  0  0
   -3.7365  -17.1177   21.2378 H   0  0  0  0  0  0  0  0  0  0  0  0
   -2.5380  -18.3965   20.8016 H   0  0  0  0  0  0  0  0  0  0  0  0
   -1.9228  -15.9294   20.5973 H   0  0  0  0  0  0  0  0  0  0  0  0
   -0.7344  -15.2311   19.3068 H   0  0  0  0  0  0  0  0  0  0  0  0
   -1.9380  -13.8166   18.5427 H   0  0  0  0  0  0  0  0  0  0  0  0
    0.3202  -13.1071   18.3543 H   0  0  0  0  0  0  0  0  0  0  0  0
    1.1120  -15.8055   19.0444 H   0  0  0  0  0  0  0  0  0  0  0  0
    2.9932  -14.5047   17.6042 H   0  0  0  0  0  0  0  0  0  0  0  0
    3.0376  -13.9991   18.8633 H   0  0  0  0  0  0  0  0  0  0  0  0
    4.2956  -11.9922   18.0464 H   0  0  0  0  0  0  0  0  0  0  0  0
    2.9508   -8.2942   18.1858 H   0  0  0  0  0  0  0  0  0  0  0  0
    4.7326   -9.1837   18.5742 H   0  0  0  0  0  0  0  0  0  0  0  0
    6.6002   -5.2895   18.8155 H   0  0  0  0  0  0  0  0  0  0  0  0
    4.7166   -4.6230   16.6927 H   0  0  0  0  0  0  0  0  0  0  0  0
   -6.3787  -17.9938   19.4414 H   0  0  0  0  0  0  0  0  0  0  0  0
   -7.5869  -19.9595   20.5016 H   0  0  0  0  0  0  0  0  0  0  0  0
  1  2  1  0
  2  3  2  0
  3  4  1  0
  4  5  1  0
  5  6  1  0
  6  7  2  0
  6  8  1  0
  8  9  1  0
  9 10  1  0
 10 11  1  0
 10 12  1  0
 12 13  1  0
 13 14  1  0
 14 15  2  0
 14 16  1  0
 16 17  1  0
 17 18  1  0
 18 19  2  0
 19 20  1  0
 20 21  2  0
  4 22  2  0
 22 23  1  0
 23  2  1  0
 21 17  1  0
  1 24  1  0
  1 25  1  0
  1 26  1  0
  5 27  1  0
  5 28  1  0
  8 29  1  0
  9 30  1  0
  9 31  1  0
 10 32  1  0
 11 33  1  0
 12 34  1  0
 12 35  1  0
 13 36  1  0
 16 37  1  0
 16 38  1  0
 19 39  1  0
 20 40  1  0
 22 41  1  0
 23 42  1  0
M  END
>  <Energy>  (882) 
772.0529232586789

>  <compound_id>  (882) 
50849

>  <target_id>  (882) 
1

>  <reference_id>  (882) 
80

>  <inspiration_ids>  (882) 
[80, 54]

>  <energy_score>  (882) 
683.5276237722663

>  <distance_score>  (882) 
10.002049185384182

>  <path>  (882) 
/opt/xchem-fragalysis-2/maxwin/BulkDock/SCRATCH/511021/C50849-P80/C50849-P80.minimised.mol

>  <scratch_subdir>  (882) 
/opt/xchem-fragalysis-2/maxwin/BulkDock/SCRATCH/511021/C50849-P80

>  <fragmenstein_runtime>  (882) 
39.90854501724243

>  <fragmenstein_outcome>  (882) 
too moved

>  <fragmenstein_mode>  (882) 
expansion

>  <fragmenstein_error>  (882) 


$$$$
C50849-P54
     RDKit          3D

 42 43  0  0  0  0  0  0  0  0999 V2000
   -2.7533  -18.3700   28.4165 C   0  0  0  0  0  0  0  0  0  0  0  0
   -3.3493  -17.5478   27.3340 C   0  0  0  0  0  0  0  0  0  0  0  0
   -3.0270  -16.3182   26.9687 N   0  0  0  0  0  0  0  0  0  0  0  0
   -3.9848  -15.9124   26.0696 C   0  0  0  0  0  0  0  0  0  0  0  0
   -4.1668  -14.5070   25.5431 C   0  0  0  0  0  0  0  0  0  0  0  0
   -2.9981  -13.5433   25.1140 C   0  0  0  0  0  0  0  0  0  0  0  0
   -2.4801  -12.9364   26.0205 O   0  0  0  0  0  0  0  0  0  0  0  0
   -2.7116  -13.5056   23.5813 N   0  0  0  0  0  0  0  0  0  0  0  0
   -1.5046  -12.6899   22.6940 C   0  0  0  0  0  0  0  0  0  0  0  0
    0.2525  -12.4088   21.8222 C   0  0  0  0  0  0  0  0  0  0  0  0
    1.1808  -13.2852   21.1453 O   0  0  0  0  0  0  0  0  0  0  0  0
    1.5684  -11.0657   21.1082 C   0  0  0  0  0  0  0  0  0  0  0  0
    2.4323  -11.2108   19.4317 N   0  0  0  0  0  0  0  0  0  0  0  0
    3.5645  -10.2773   18.7121 C   0  0  0  0  0  0  0  0  0  0  0  0
    4.0054   -9.2372   19.1194 O   0  0  0  0  0  0  0  0  0  0  0  0
    4.4749  -10.8784   17.1007 C   0  0  0  0  0  0  0  0  0  0  0  0
    5.3192   -9.9245   15.8039 N   0  0  0  0  0  0  0  0  0  0  0  0
    6.0955   -9.9132   14.2730 N   0  0  0  0  0  0  0  0  0  0  0  0
    7.3510   -9.6533   14.1757 C   0  0  0  0  0  0  0  0  0  0  0  0
    7.1055   -8.8025   15.1046 C   0  0  0  0  0  0  0  0  0  0  0  0
    6.3258   -9.1978   16.1676 N   0  0  0  0  0  0  0  0  0  0  0  0
   -4.8818  -16.9549   25.8803 C   0  0  0  0  0  0  0  0  0  0  0  0
   -4.3857  -18.0129   26.5763 N   0  0  0  0  0  0  0  0  0  0  0  0
   -1.6619  -18.3569   28.3344 H   0  0  0  0  0  0  0  0  0  0  0  0
   -3.0251  -17.9592   29.3928 H   0  0  0  0  0  0  0  0  0  0  0  0
   -3.0811  -19.4125   28.3662 H   0  0  0  0  0  0  0  0  0  0  0  0
   -4.6899  -13.9678   26.3484 H   0  0  0  0  0  0  0  0  0  0  0  0
   -4.9035  -14.5779   24.7474 H   0  0  0  0  0  0  0  0  0  0  0  0
   -3.2697  -14.2012   23.1207 H   0  0  0  0  0  0  0  0  0  0  0  0
   -1.7636  -13.4472   21.9545 H   0  0  0  0  0  0  0  0  0  0  0  0
   -2.0071  -11.7724   22.9723 H   0  0  0  0  0  0  0  0  0  0  0  0
   -0.6133  -12.5552   21.0766 H   0  0  0  0  0  0  0  0  0  0  0  0
    2.0917  -12.9490   20.9921 H   0  0  0  0  0  0  0  0  0  0  0  0
    2.4361  -11.2983   21.6998 H   0  0  0  0  0  0  0  0  0  0  0  0
    1.1108  -10.1401   21.1566 H   0  0  0  0  0  0  0  0  0  0  0  0
    2.3201  -12.0720   18.8952 H   0  0  0  0  0  0  0  0  0  0  0  0
    5.3865  -11.2960   17.5162 H   0  0  0  0  0  0  0  0  0  0  0  0
    3.9149  -11.6196   16.5495 H   0  0  0  0  0  0  0  0  0  0  0  0
    7.9581   -9.8129   13.3012 H   0  0  0  0  0  0  0  0  0  0  0  0
    7.5738   -7.8519   15.2680 H   0  0  0  0  0  0  0  0  0  0  0  0
   -5.7995  -17.0174   25.3160 H   0  0  0  0  0  0  0  0  0  0  0  0
   -4.7624  -18.9478   26.6210 H   0  0  0  0  0  0  0  0  0  0  0  0
  1  2  1  0
  2  3  2  0
  3  4  1  0
  4  5  1  0
  5  6  1  0
  6  7  2  0
  6  8  1  0
  8  9  1  0
  9 10  1  0
 10 11  1  0
 10 12  1  0
 12 13  1  0
 13 14  1  0
 14 15  2  0
 14 16  1  0
 16 17  1  0
 17 18  1  0
 18 19  2  0
 19 20  1  0
 20 21  2  0
  4 22  2  0
 22 23  1  0
 23  2  1  0
 21 17  1  0
  1 24  1  0
  1 25  1  0
  1 26  1  0
  5 27  1  0
  5 28  1  0
  8 29  1  0
  9 30  1  0
  9 31  1  0
 10 32  1  0
 11 33  1  0
 12 34  1  0
 12 35  1  0
 13 36  1  0
 16 37  1  0
 16 38  1  0
 19 39  1  0
 20 40  1  0
 22 41  1  0
 23 42  1  0
M  END
>  <Energy>  (883) 
692.18116998397772

>  <compound_id>  (883) 
50849

>  <target_id>  (883) 
1

>  <reference_id>  (883) 
54

>  <inspiration_ids>  (883) 
[80, 54]

>  <energy_score>  (883) 
603.6558704975521

>  <distance_score>  (883) 
10.041097369472217

>  <path>  (883) 
/opt/xchem-fragalysis-2/maxwin/BulkDock/SCRATCH/511021/C50849-P54/C50849-P54.minimised.mol

>  <scratch_subdir>  (883) 
/opt/xchem-fragalysis-2/maxwin/BulkDock/SCRATCH/511021/C50849-P54

>  <fragmenstein_runtime>  (883) 
27.775184392929077

>  <fragmenstein_outcome>  (883) 
too moved

>  <fragmenstein_mode>  (883) 
expansion

>  <fragmenstein_error>  (883) 


$$$$
C50850-P80
     RDKit          3D

 40 41  0  0  0  0  0  0  0  0999 V2000
    0.7302  -17.4826   27.7989 C   0  0  0  0  0  0  0  0  0  0  0  0
    0.7291  -16.2988   28.7698 C   0  0  0  0  0  0  0  0  0  0  0  0
   -0.6065  -14.9756   28.0841 C   0  0  0  0  0  0  0  0  0  0  0  0
   -2.2453  -14.5558   29.2097 C   0  0  0  0  0  0  0  0  0  0  0  0
   -3.4938  -13.1469   29.6472 N   0  0  0  0  0  0  0  0  0  0  0  0
   -5.2160  -13.2202   30.0249 C   0  0  0  0  0  0  0  0  0  0  0  0
   -5.9019  -14.2327   30.1630 O   0  0  0  0  0  0  0  0  0  0  0  0
   -6.1161  -11.9790   30.0952 C   0  0  0  0  0  0  0  0  0  0  0  0
   -7.0579  -11.9823   31.1296 C   0  0  0  0  0  0  0  0  0  0  0  0
   -8.4041  -12.2780   31.0442 N   0  0  0  0  0  0  0  0  0  0  0  0
   -8.8590  -12.5030   29.8042 C   0  0  0  0  0  0  0  0  0  0  0  0
   -8.0458  -12.2939   28.7205 C   0  0  0  0  0  0  0  0  0  0  0  0
   -6.7325  -11.9553   28.8496 N   0  0  0  0  0  0  0  0  0  0  0  0
    1.2489  -14.7103   27.1606 N   0  0  0  0  0  0  0  0  0  0  0  0
    1.7837  -13.6521   26.3604 C   0  0  0  0  0  0  0  0  0  0  0  0
    1.2716  -12.6817   25.9454 O   0  0  0  0  0  0  0  0  0  0  0  0
    3.6901  -14.1690   26.0598 C   0  0  0  0  0  0  0  0  0  0  0  0
    4.5138  -13.8019   24.6276 C   0  0  0  0  0  0  0  0  0  0  0  0
    5.8655  -13.5033   24.4227 C   0  0  0  0  0  0  0  0  0  0  0  0
    6.1208  -13.0367   23.1512 N   0  0  0  0  0  0  0  0  0  0  0  0
    4.9596  -13.0775   22.5472 C   0  0  0  0  0  0  0  0  0  0  0  0
    3.9692  -13.5376   23.3845 N   0  0  0  0  0  0  0  0  0  0  0  0
    1.6669  -17.5196   27.2433 H   0  0  0  0  0  0  0  0  0  0  0  0
    0.6160  -18.1762   28.5902 H   0  0  0  0  0  0  0  0  0  0  0  0
   -0.1652  -17.7185   27.1959 H   0  0  0  0  0  0  0  0  0  0  0  0
    1.7474  -16.1490   28.6036 H   0  0  0  0  0  0  0  0  0  0  0  0
    0.7561  -16.3686   29.8883 H   0  0  0  0  0  0  0  0  0  0  0  0
   -0.4627  -15.0971   29.2179 H   0  0  0  0  0  0  0  0  0  0  0  0
   -2.8509  -15.2097   28.5865 H   0  0  0  0  0  0  0  0  0  0  0  0
   -2.2409  -15.1782   30.1071 H   0  0  0  0  0  0  0  0  0  0  0  0
   -3.2190  -12.1797   29.5126 H   0  0  0  0  0  0  0  0  0  0  0  0
   -6.7824  -11.6720   32.1211 H   0  0  0  0  0  0  0  0  0  0  0  0
   -9.8973  -12.7897   29.7071 H   0  0  0  0  0  0  0  0  0  0  0  0
   -8.4071  -12.3862   27.7042 H   0  0  0  0  0  0  0  0  0  0  0  0
    1.9827  -15.3337   27.4130 H   0  0  0  0  0  0  0  0  0  0  0  0
    4.2433  -13.8199   26.9444 H   0  0  0  0  0  0  0  0  0  0  0  0
    4.0069  -15.1826   26.2614 H   0  0  0  0  0  0  0  0  0  0  0  0
    6.6656  -13.5445   25.1496 H   0  0  0  0  0  0  0  0  0  0  0  0
    4.7487  -12.7800   21.5290 H   0  0  0  0  0  0  0  0  0  0  0  0
    2.9909  -13.5607   23.1296 H   0  0  0  0  0  0  0  0  0  0  0  0
  1  2  1  0
  2  3  1  0
  3  4  1  0
  4  5  1  0
  5  6  1  0
  6  7  2  0
  6  8  1  0
  8  9  2  0
  9 10  1  0
 10 11  2  0
 11 12  1  0
 12 13  2  0
  3 14  1  0
 14 15  1  0
 15 16  2  0
 15 17  1  0
 17 18  1  0
 18 19  2  0
 19 20  1  0
 20 21  2  0
 21 22  1  0
 13  8  1  0
 22 18  1  0
  1 23  1  0
  1 24  1  0
  1 25  1  0
  2 26  1  0
  2 27  1  0
  3 28  1  0
  4 29  1  0
  4 30  1  0
  5 31  1  0
  9 32  1  0
 11 33  1  0
 12 34  1  0
 14 35  1  0
 17 36  1  0
 17 37  1  0
 19 38  1  0
 21 39  1  0
 22 40  1  0
M  END
>  <Energy>  (884) 
754.01980900889714

>  <compound_id>  (884) 
50850

>  <target_id>  (884) 
1

>  <reference_id>  (884) 
80

>  <inspiration_ids>  (884) 
[80, 54]

>  <energy_score>  (884) 
633.0872475744602

>  <distance_score>  (884) 
13.456622225709337

>  <path>  (884) 
/opt/xchem-fragalysis-2/maxwin/BulkDock/SCRATCH/511021/C50850-P80/C50850-P80.minimised.mol

>  <scratch_subdir>  (884) 
/opt/xchem-fragalysis-2/maxwin/BulkDock/SCRATCH/511021/C50850-P80

>  <fragmenstein_runtime>  (884) 
40.53929162025452

>  <fragmenstein_outcome>  (884) 
too moved

>  <fragmenstein_mode>  (884) 
expansion

>  <fragmenstein_error>  (884) 


$$$$
C50850-P54
     RDKit          3D

 40 41  0  0  0  0  0  0  0  0999 V2000
   -3.7626  -10.6001   21.0809 C   0  0  0  0  0  0  0  0  0  0  0  0
   -3.6907  -12.0809   20.6889 C   0  0  0  0  0  0  0  0  0  0  0  0
   -3.4369  -12.2095   19.1709 C   0  0  0  0  0  0  0  0  0  0  0  0
   -3.9876  -13.5537   18.5594 C   0  0  0  0  0  0  0  0  0  0  0  0
   -4.9460  -14.3888   19.3086 N   0  0  0  0  0  0  0  0  0  0  0  0
   -6.3211  -14.1535   19.6774 C   0  0  0  0  0  0  0  0  0  0  0  0
   -7.0128  -13.1856   19.5378 O   0  0  0  0  0  0  0  0  0  0  0  0
   -6.9848  -15.3511   20.3702 C   0  0  0  0  0  0  0  0  0  0  0  0
   -8.2559  -15.2477   20.9405 C   0  0  0  0  0  0  0  0  0  0  0  0
   -8.9022  -16.2863   21.5565 N   0  0  0  0  0  0  0  0  0  0  0  0
   -8.2461  -17.4657   21.5249 C   0  0  0  0  0  0  0  0  0  0  0  0
   -6.9708  -17.5774   20.9952 C   0  0  0  0  0  0  0  0  0  0  0  0
   -6.2963  -16.5260   20.4395 N   0  0  0  0  0  0  0  0  0  0  0  0
   -1.9825  -11.9752   18.8600 N   0  0  0  0  0  0  0  0  0  0  0  0
   -1.2471  -10.7331   18.5582 C   0  0  0  0  0  0  0  0  0  0  0  0
   -1.6412   -9.6071   18.4068 O   0  0  0  0  0  0  0  0  0  0  0  0
    0.2900  -11.0389   18.4205 C   0  0  0  0  0  0  0  0  0  0  0  0
    1.2529   -9.8715   18.1415 C   0  0  0  0  0  0  0  0  0  0  0  0
    2.6358   -9.8459   17.9986 C   0  0  0  0  0  0  0  0  0  0  0  0
    3.1091   -8.5783   17.7468 N   0  0  0  0  0  0  0  0  0  0  0  0
    2.0373   -7.8216   17.7229 C   0  0  0  0  0  0  0  0  0  0  0  0
    0.8988   -8.5513   17.9549 N   0  0  0  0  0  0  0  0  0  0  0  0
   -4.6544  -10.1353   20.6467 H   0  0  0  0  0  0  0  0  0  0  0  0
   -2.8947  -10.0378   20.7327 H   0  0  0  0  0  0  0  0  0  0  0  0
   -3.8176  -10.4728   22.1647 H   0  0  0  0  0  0  0  0  0  0  0  0
   -2.9014  -12.5861   21.2545 H   0  0  0  0  0  0  0  0  0  0  0  0
   -4.6488  -12.5264   20.9546 H   0  0  0  0  0  0  0  0  0  0  0  0
   -3.9720  -11.3948   18.6655 H   0  0  0  0  0  0  0  0  0  0  0  0
   -3.1503  -14.2126   18.3043 H   0  0  0  0  0  0  0  0  0  0  0  0
   -4.4823  -13.3078   17.6119 H   0  0  0  0  0  0  0  0  0  0  0  0
   -4.6597  -15.3031   19.6578 H   0  0  0  0  0  0  0  0  0  0  0  0
   -8.8051  -14.3106   20.9107 H   0  0  0  0  0  0  0  0  0  0  0  0
   -8.7801  -18.3224   21.9159 H   0  0  0  0  0  0  0  0  0  0  0  0
   -6.4485  -18.5294   20.9872 H   0  0  0  0  0  0  0  0  0  0  0  0
   -1.3185  -12.7287   19.0017 H   0  0  0  0  0  0  0  0  0  0  0  0
    0.6138  -11.5178   19.3528 H   0  0  0  0  0  0  0  0  0  0  0  0
    0.4031  -11.7642   17.6053 H   0  0  0  0  0  0  0  0  0  0  0  0
    3.3160  -10.6859   18.0657 H   0  0  0  0  0  0  0  0  0  0  0  0
    2.0111   -6.7551   17.5447 H   0  0  0  0  0  0  0  0  0  0  0  0
   -0.0520   -8.1977   17.9778 H   0  0  0  0  0  0  0  0  0  0  0  0
  1  2  1  0
  2  3  1  0
  3  4  1  0
  4  5  1  0
  5  6  1  0
  6  7  2  0
  6  8  1  0
  8  9  2  0
  9 10  1  0
 10 11  2  0
 11 12  1  0
 12 13  2  0
  3 14  1  0
 14 15  1  0
 15 16  2  0
 15 17  1  0
 17 18  1  0
 18 19  2  0
 19 20  1  0
 20 21  2  0
 21 22  1  0
 13  8  1  0
 22 18  1  0
  1 23  1  0
  1 24  1  0
  1 25  1  0
  2 26  1  0
  2 27  1  0
  3 28  1  0
  4 29  1  0
  4 30  1  0
  5 31  1  0
  9 32  1  0
 11 33  1  0
 12 34  1  0
 14 35  1  0
 17 36  1  0
 17 37  1  0
 19 38  1  0
 21 39  1  0
 22 40  1  0
M  END
>  <Energy>  (885) 
116.4390419297184

>  <compound_id>  (885) 
50850

>  <target_id>  (885) 
1

>  <reference_id>  (885) 
54

>  <inspiration_ids>  (885) 
[80, 54]

>  <energy_score>  (885) 
-4.493519504699918

>  <distance_score>  (885) 
13.937059037165756

>  <path>  (885) 
/opt/xchem-fragalysis-2/maxwin/BulkDock/SCRATCH/511021/C50850-P54/C50850-P54.minimised.mol

>  <scratch_subdir>  (885) 
/opt/xchem-fragalysis-2/maxwin/BulkDock/SCRATCH/511021/C50850-P54

>  <fragmenstein_runtime>  (885) 
36.69835186004639

>  <fragmenstein_outcome>  (885) 
too moved

>  <fragmenstein_mode>  (885) 
expansion

>  <fragmenstein_error>  (885) 


$$$$
C50851-P80
     RDKit          3D

 43 44  0  0  0  0  0  0  0  0999 V2000
   -4.6247  -20.1900   31.3503 C   0  0  0  0  0  0  0  0  0  0  0  0
   -3.6484  -21.2313   29.9774 C   0  0  0  0  0  0  0  0  0  0  0  0
   -2.5795  -22.1456   29.0799 C   0  0  0  0  0  0  0  0  0  0  0  0
   -4.0441  -22.3011   27.6981 C   0  0  0  0  0  0  0  0  0  0  0  0
   -5.7390  -23.0423   27.8556 N   0  0  0  0  0  0  0  0  0  0  0  0
   -7.2490  -22.3432   27.8327 C   0  0  0  0  0  0  0  0  0  0  0  0
   -7.4964  -21.2004   27.6207 O   0  0  0  0  0  0  0  0  0  0  0  0
   -8.8344  -23.2647   28.2349 C   0  0  0  0  0  0  0  0  0  0  0  0
   -9.2285  -24.5800   28.5546 C   0  0  0  0  0  0  0  0  0  0  0  0
  -10.5165  -25.0435   28.6502 N   0  0  0  0  0  0  0  0  0  0  0  0
  -11.4707  -24.1085   28.5643 C   0  0  0  0  0  0  0  0  0  0  0  0
  -11.1598  -22.7856   28.5082 C   0  0  0  0  0  0  0  0  0  0  0  0
   -9.8798  -22.3804   28.4130 N   0  0  0  0  0  0  0  0  0  0  0  0
   -1.3590  -20.7440   28.9984 N   0  0  0  0  0  0  0  0  0  0  0  0
   -0.2447  -20.1124   30.2021 C   0  0  0  0  0  0  0  0  0  0  0  0
   -0.0347  -20.6032   31.2954 O   0  0  0  0  0  0  0  0  0  0  0  0
    0.7038  -18.3680   30.0525 C   0  0  0  0  0  0  0  0  0  0  0  0
    1.2691  -16.9405   28.7534 C   0  0  0  0  0  0  0  0  0  0  0  0
    1.1206  -17.4659   27.4536 C   0  0  0  0  0  0  0  0  0  0  0  0
    2.3615  -17.6898   26.7077 N   0  0  0  0  0  0  0  0  0  0  0  0
    3.2239  -17.2104   27.4845 C   0  0  0  0  0  0  0  0  0  0  0  0
    2.5144  -16.2715   28.0023 N   0  0  0  0  0  0  0  0  0  0  0  0
    3.3160  -15.0888   27.6798 C   0  0  0  0  0  0  0  0  0  0  0  0
   -5.3380  -19.4127   31.0913 H   0  0  0  0  0  0  0  0  0  0  0  0
   -5.1783  -20.7628   32.0971 H   0  0  0  0  0  0  0  0  0  0  0  0
   -3.9759  -19.5134   31.9646 H   0  0  0  0  0  0  0  0  0  0  0  0
   -4.2559  -21.1914   29.1508 H   0  0  0  0  0  0  0  0  0  0  0  0
   -2.9528  -20.4590   30.0392 H   0  0  0  0  0  0  0  0  0  0  0  0
   -1.9837  -22.4839   28.2301 H   0  0  0  0  0  0  0  0  0  0  0  0
   -4.1852  -21.3305   27.2047 H   0  0  0  0  0  0  0  0  0  0  0  0
   -3.6113  -23.0129   26.9839 H   0  0  0  0  0  0  0  0  0  0  0  0
   -5.8217  -23.9635   28.1353 H   0  0  0  0  0  0  0  0  0  0  0  0
   -8.5339  -25.3804   28.7570 H   0  0  0  0  0  0  0  0  0  0  0  0
  -12.4940  -24.4366   28.5501 H   0  0  0  0  0  0  0  0  0  0  0  0
  -11.9033  -22.0017   28.5069 H   0  0  0  0  0  0  0  0  0  0  0  0
   -1.2800  -20.2064   28.1636 H   0  0  0  0  0  0  0  0  0  0  0  0
    0.2336  -17.7264   30.7841 H   0  0  0  0  0  0  0  0  0  0  0  0
    1.5504  -18.4871   30.7377 H   0  0  0  0  0  0  0  0  0  0  0  0
    0.1817  -17.8952   27.1032 H   0  0  0  0  0  0  0  0  0  0  0  0
    4.0552  -17.5696   28.0389 H   0  0  0  0  0  0  0  0  0  0  0  0
    3.9302  -15.1458   26.7578 H   0  0  0  0  0  0  0  0  0  0  0  0
    4.2076  -15.0640   28.2429 H   0  0  0  0  0  0  0  0  0  0  0  0
    2.7032  -14.2318   27.4579 H   0  0  0  0  0  0  0  0  0  0  0  0
  1  2  1  0
  2  3  1  0
  3  4  1  0
  4  5  1  0
  5  6  1  0
  6  7  2  0
  6  8  1  0
  8  9  2  0
  9 10  1  0
 10 11  2  0
 11 12  1  0
 12 13  2  0
  3 14  1  0
 14 15  1  0
 15 16  2  0
 15 17  1  0
 17 18  1  0
 18 19  2  0
 19 20  1  0
 20 21  2  0
 21 22  1  0
 22 23  1  0
 13  8  1  0
 22 18  1  0
  1 24  1  0
  1 25  1  0
  1 26  1  0
  2 27  1  0
  2 28  1  0
  3 29  1  0
  4 30  1  0
  4 31  1  0
  5 32  1  0
  9 33  1  0
 11 34  1  0
 12 35  1  0
 14 36  1  0
 17 37  1  0
 17 38  1  0
 19 39  1  0
 21 40  1  0
 23 41  1  0
 23 42  1  0
 23 43  1  0
M  END
>  <Energy>  (886) 
891.70046264273356

>  <compound_id>  (886) 
50851

>  <target_id>  (886) 
1

>  <reference_id>  (886) 
80

>  <inspiration_ids>  (886) 
[80, 54]

>  <energy_score>  (886) 
765.4690681088794

>  <distance_score>  (886) 
13.158668365099214

>  <path>  (886) 
/opt/xchem-fragalysis-2/maxwin/BulkDock/SCRATCH/511021/C50851-P80/C50851-P80.minimised.mol

>  <scratch_subdir>  (886) 
/opt/xchem-fragalysis-2/maxwin/BulkDock/SCRATCH/511021/C50851-P80

>  <fragmenstein_runtime>  (886) 
33.67412614822388

>  <fragmenstein_outcome>  (886) 
too moved

>  <fragmenstein_mode>  (886) 
expansion

>  <fragmenstein_error>  (886) 


$$$$
C50851-P54
     RDKit          3D

 43 44  0  0  0  0  0  0  0  0999 V2000
    2.9298  -20.0843   26.4243 C   0  0  0  0  0  0  0  0  0  0  0  0
    1.0486  -19.9747   26.9455 C   0  0  0  0  0  0  0  0  0  0  0  0
   -0.5645  -18.6260   26.8700 C   0  0  0  0  0  0  0  0  0  0  0  0
   -0.9739  -20.6874   27.5895 C   0  0  0  0  0  0  0  0  0  0  0  0
   -2.6874  -21.5905   27.6268 N   0  0  0  0  0  0  0  0  0  0  0  0
   -4.0137  -21.5019   28.7844 C   0  0  0  0  0  0  0  0  0  0  0  0
   -3.7900  -20.8807   29.7352 O   0  0  0  0  0  0  0  0  0  0  0  0
   -5.9461  -22.0451   28.7863 C   0  0  0  0  0  0  0  0  0  0  0  0
   -7.0239  -23.2594   29.1332 C   0  0  0  0  0  0  0  0  0  0  0  0
   -8.4227  -23.5520   29.0998 N   0  0  0  0  0  0  0  0  0  0  0  0
   -9.1392  -22.6236   28.5111 C   0  0  0  0  0  0  0  0  0  0  0  0
   -8.4290  -21.5100   28.0697 C   0  0  0  0  0  0  0  0  0  0  0  0
   -6.8366  -21.1031   28.1629 N   0  0  0  0  0  0  0  0  0  0  0  0
    0.3172  -17.4591   25.2910 N   0  0  0  0  0  0  0  0  0  0  0  0
    1.0968  -15.8105   25.3456 C   0  0  0  0  0  0  0  0  0  0  0  0
    1.1274  -14.9668   26.2315 O   0  0  0  0  0  0  0  0  0  0  0  0
    2.2174  -15.7785   23.5559 C   0  0  0  0  0  0  0  0  0  0  0  0
    3.6770  -16.0704   22.5624 C   0  0  0  0  0  0  0  0  0  0  0  0
    4.4615  -17.2182   22.4821 C   0  0  0  0  0  0  0  0  0  0  0  0
    5.5075  -17.0953   21.5962 N   0  0  0  0  0  0  0  0  0  0  0  0
    5.3595  -15.9291   21.0315 C   0  0  0  0  0  0  0  0  0  0  0  0
    4.2627  -15.2617   21.5236 N   0  0  0  0  0  0  0  0  0  0  0  0
    4.0175  -13.9117   21.0553 C   0  0  0  0  0  0  0  0  0  0  0  0
    3.7009  -19.7627   27.1027 H   0  0  0  0  0  0  0  0  0  0  0  0
    3.0473  -21.1719   26.2013 H   0  0  0  0  0  0  0  0  0  0  0  0
    3.3229  -19.8349   25.4317 H   0  0  0  0  0  0  0  0  0  0  0  0
    0.8319  -20.9690   26.3088 H   0  0  0  0  0  0  0  0  0  0  0  0
    1.0341  -20.9639   27.4982 H   0  0  0  0  0  0  0  0  0  0  0  0
   -0.4779  -18.0643   27.8152 H   0  0  0  0  0  0  0  0  0  0  0  0
   -0.5049  -21.6427   27.2548 H   0  0  0  0  0  0  0  0  0  0  0  0
   -0.8152  -20.6168   28.6849 H   0  0  0  0  0  0  0  0  0  0  0  0
   -3.0246  -22.0796   26.8130 H   0  0  0  0  0  0  0  0  0  0  0  0
   -6.5991  -24.2777   29.0407 H   0  0  0  0  0  0  0  0  0  0  0  0
  -10.2152  -22.7032   28.5086 H   0  0  0  0  0  0  0  0  0  0  0  0
   -9.0858  -20.6216   28.0977 H   0  0  0  0  0  0  0  0  0  0  0  0
    0.4266  -17.8476   24.3114 H   0  0  0  0  0  0  0  0  0  0  0  0
    3.0035  -15.6510   24.3283 H   0  0  0  0  0  0  0  0  0  0  0  0
    2.0309  -16.7983   23.2347 H   0  0  0  0  0  0  0  0  0  0  0  0
    4.3303  -18.1254   23.0547 H   0  0  0  0  0  0  0  0  0  0  0  0
    6.0137  -15.5189   20.2728 H   0  0  0  0  0  0  0  0  0  0  0  0
    2.9840  -13.7926   20.7402 H   0  0  0  0  0  0  0  0  0  0  0  0
    4.6484  -13.7059   20.1843 H   0  0  0  0  0  0  0  0  0  0  0  0
    4.2844  -13.2028   21.8421 H   0  0  0  0  0  0  0  0  0  0  0  0
  1  2  1  0
  2  3  1  0
  3  4  1  0
  4  5  1  0
  5  6  1  0
  6  7  2  0
  6  8  1  0
  8  9  2  0
  9 10  1  0
 10 11  2  0
 11 12  1  0
 12 13  2  0
  3 14  1  0
 14 15  1  0
 15 16  2  0
 15 17  1  0
 17 18  1  0
 18 19  2  0
 19 20  1  0
 20 21  2  0
 21 22  1  0
 22 23  1  0
 13  8  1  0
 22 18  1  0
  1 24  1  0
  1 25  1  0
  1 26  1  0
  2 27  1  0
  2 28  1  0
  3 29  1  0
  4 30  1  0
  4 31  1  0
  5 32  1  0
  9 33  1  0
 11 34  1  0
 12 35  1  0
 14 36  1  0
 17 37  1  0
 17 38  1  0
 19 39  1  0
 21 40  1  0
 23 41  1  0
 23 42  1  0
 23 43  1  0
M  END
>  <Energy>  (887) 
1178.6150451431224

>  <compound_id>  (887) 
50851

>  <target_id>  (887) 
1

>  <reference_id>  (887) 
54

>  <inspiration_ids>  (887) 
[80, 54]

>  <energy_score>  (887) 
1052.3836506092994

>  <distance_score>  (887) 
11.671333734009165

>  <path>  (887) 
/opt/xchem-fragalysis-2/maxwin/BulkDock/SCRATCH/511021/C50851-P54/C50851-P54.minimised.mol

>  <scratch_subdir>  (887) 
/opt/xchem-fragalysis-2/maxwin/BulkDock/SCRATCH/511021/C50851-P54

>  <fragmenstein_runtime>  (887) 
24.11475372314453

>  <fragmenstein_outcome>  (887) 
too moved

>  <fragmenstein_mode>  (887) 
expansion

>  <fragmenstein_error>  (887) 


$$$$
C50853-P80
     RDKit          3D

 32 34  0  0  0  0  0  0  0  0999 V2000
   -5.2150  -30.5321   31.1925 O   0  0  0  0  0  0  0  0  0  0  0  0
   -5.2862  -29.5193   31.8567 C   0  0  0  0  0  0  0  0  0  0  0  0
   -6.5753  -28.6380   32.2947 N   0  0  0  0  0  0  0  0  0  0  0  0
   -8.2409  -28.7696   31.8732 C   0  0  0  0  0  0  0  0  0  0  0  0
   -9.2191  -27.3080   31.3602 C   0  0  0  0  0  0  0  0  0  0  0  0
   -8.8877  -25.9572   31.5908 N   0  0  0  0  0  0  0  0  0  0  0  0
   -9.9963  -25.3475   31.2614 C   0  0  0  0  0  0  0  0  0  0  0  0
  -10.9448  -26.1583   30.7465 O   0  0  0  0  0  0  0  0  0  0  0  0
  -10.4573  -27.4536   30.8326 N   0  0  0  0  0  0  0  0  0  0  0  0
   -9.4936  -29.7426   32.7926 C   0  0  0  0  0  0  0  0  0  0  0  0
   -9.1864  -31.2681   33.2854 C   0  0  0  0  0  0  0  0  0  0  0  0
   -9.9163  -30.3664   34.1743 C   0  0  0  0  0  0  0  0  0  0  0  0
   -3.7632  -28.7951   32.4167 C   0  0  0  0  0  0  0  0  0  0  0  0
   -4.0804  -28.5353   33.7305 F   0  0  0  0  0  0  0  0  0  0  0  0
   -2.4350  -28.3530   32.1881 C   0  0  0  0  0  0  0  0  0  0  0  0
   -1.3449  -28.1701   31.1769 C   0  0  0  0  0  0  0  0  0  0  0  0
   -1.0310  -28.4535   29.8422 C   0  0  0  0  0  0  0  0  0  0  0  0
    0.1118  -27.7903   29.3885 N   0  0  0  0  0  0  0  0  0  0  0  0
    0.5862  -27.1738   30.4393 C   0  0  0  0  0  0  0  0  0  0  0  0
   -0.2272  -27.3810   31.5292 N   0  0  0  0  0  0  0  0  0  0  0  0
   -6.2681  -27.8027   32.7781 H   0  0  0  0  0  0  0  0  0  0  0  0
   -8.0891  -28.6895   30.8236 H   0  0  0  0  0  0  0  0  0  0  0  0
  -10.2535  -24.3064   31.3503 H   0  0  0  0  0  0  0  0  0  0  0  0
  -10.4379  -29.4889   32.2995 H   0  0  0  0  0  0  0  0  0  0  0  0
   -9.7666  -32.1044   32.8939 H   0  0  0  0  0  0  0  0  0  0  0  0
   -8.1819  -31.5937   33.5297 H   0  0  0  0  0  0  0  0  0  0  0  0
   -9.5555  -30.0479   35.1284 H   0  0  0  0  0  0  0  0  0  0  0  0
  -10.9465  -30.6902   34.3177 H   0  0  0  0  0  0  0  0  0  0  0  0
   -2.0659  -27.9642   33.1440 H   0  0  0  0  0  0  0  0  0  0  0  0
   -1.6194  -29.0517   29.1559 H   0  0  0  0  0  0  0  0  0  0  0  0
    1.4865  -26.5763   30.4860 H   0  0  0  0  0  0  0  0  0  0  0  0
   -0.0632  -26.9908   32.4450 H   0  0  0  0  0  0  0  0  0  0  0  0
  1  2  2  0
  2  3  1  0
  3  4  1  0
  4  5  1  0
  5  6  1  0
  6  7  2  0
  7  8  1  0
  8  9  1  0
  4 10  1  0
 10 11  1  0
 11 12  1  0
  2 13  1  0
 13 14  1  0
 13 15  2  3
 15 16  1  0
 16 17  2  0
 17 18  1  0
 18 19  2  0
 19 20  1  0
  9  5  2  0
 12 10  1  0
 20 16  1  0
  3 21  1  0
  4 22  1  0
  7 23  1  0
 10 24  1  0
 11 25  1  0
 11 26  1  0
 12 27  1  0
 12 28  1  0
 15 29  1  0
 17 30  1  0
 19 31  1  0
 20 32  1  0
M  END
>  <Energy>  (888) 
274.72891011692508

>  <compound_id>  (888) 
50853

>  <target_id>  (888) 
1

>  <reference_id>  (888) 
80

>  <inspiration_ids>  (888) 
[80, 54]

>  <energy_score>  (888) 
190.4265418667835

>  <distance_score>  (888) 
20.097271679328163

>  <path>  (888) 
/opt/xchem-fragalysis-2/maxwin/BulkDock/SCRATCH/511021/C50853-P80/C50853-P80.minimised.mol

>  <scratch_subdir>  (888) 
/opt/xchem-fragalysis-2/maxwin/BulkDock/SCRATCH/511021/C50853-P80

>  <fragmenstein_runtime>  (888) 
30.866949558258057

>  <fragmenstein_outcome>  (888) 
too moved

>  <fragmenstein_mode>  (888) 
expansion

>  <fragmenstein_error>  (888) 


$$$$
C50853-P54
     RDKit          3D

 32 34  0  0  0  0  0  0  0  0999 V2000
   -6.1775  -17.6517   25.8225 O   0  0  0  0  0  0  0  0  0  0  0  0
   -5.3807  -18.5605   25.8591 C   0  0  0  0  0  0  0  0  0  0  0  0
   -5.8127  -20.1018   26.9659 N   0  0  0  0  0  0  0  0  0  0  0  0
   -7.4575  -20.5741   27.9846 C   0  0  0  0  0  0  0  0  0  0  0  0
   -9.4304  -20.2654   28.1857 C   0  0  0  0  0  0  0  0  0  0  0  0
  -10.3918  -21.1174   27.5240 N   0  0  0  0  0  0  0  0  0  0  0  0
  -11.4666  -21.0288   28.2358 C   0  0  0  0  0  0  0  0  0  0  0  0
  -11.3809  -20.1387   29.2260 O   0  0  0  0  0  0  0  0  0  0  0  0
  -10.1015  -19.6457   29.2027 N   0  0  0  0  0  0  0  0  0  0  0  0
   -8.4015  -22.2129   28.2717 C   0  0  0  0  0  0  0  0  0  0  0  0
   -9.4018  -22.7513   29.4148 C   0  0  0  0  0  0  0  0  0  0  0  0
   -8.0094  -23.1734   29.4039 C   0  0  0  0  0  0  0  0  0  0  0  0
   -3.8398  -18.1856   24.4868 C   0  0  0  0  0  0  0  0  0  0  0  0
   -4.3000  -18.7853   23.3364 F   0  0  0  0  0  0  0  0  0  0  0  0
   -2.6151  -16.7590   24.3834 C   0  0  0  0  0  0  0  0  0  0  0  0
   -3.0049  -14.9430   23.7085 C   0  0  0  0  0  0  0  0  0  0  0  0
   -4.0359  -14.0003   22.6990 C   0  0  0  0  0  0  0  0  0  0  0  0
   -3.5935  -13.0363   21.8444 N   0  0  0  0  0  0  0  0  0  0  0  0
   -2.8709  -12.4279   22.6939 C   0  0  0  0  0  0  0  0  0  0  0  0
   -2.6396  -13.2241   23.7712 N   0  0  0  0  0  0  0  0  0  0  0  0
   -5.0986  -20.8080   26.8296 H   0  0  0  0  0  0  0  0  0  0  0  0
   -7.6925  -19.8409   27.2316 H   0  0  0  0  0  0  0  0  0  0  0  0
  -12.3513  -21.6175   28.1467 H   0  0  0  0  0  0  0  0  0  0  0  0
   -8.8332  -22.5921   27.3319 H   0  0  0  0  0  0  0  0  0  0  0  0
   -9.7241  -22.1480   30.2561 H   0  0  0  0  0  0  0  0  0  0  0  0
  -10.1424  -23.4900   29.1211 H   0  0  0  0  0  0  0  0  0  0  0  0
   -7.5263  -22.7749   30.2763 H   0  0  0  0  0  0  0  0  0  0  0  0
   -7.8174  -24.2103   29.1635 H   0  0  0  0  0  0  0  0  0  0  0  0
   -2.1296  -16.5198   25.3278 H   0  0  0  0  0  0  0  0  0  0  0  0
   -5.1265  -14.0780   22.6607 H   0  0  0  0  0  0  0  0  0  0  0  0
   -2.6875  -11.3718   22.6550 H   0  0  0  0  0  0  0  0  0  0  0  0
   -2.3543  -12.9038   24.6867 H   0  0  0  0  0  0  0  0  0  0  0  0
  1  2  2  0
  2  3  1  0
  3  4  1  0
  4  5  1  0
  5  6  1  0
  6  7  2  0
  7  8  1  0
  8  9  1  0
  4 10  1  0
 10 11  1  0
 11 12  1  0
  2 13  1  0
 13 14  1  0
 13 15  2  3
 15 16  1  0
 16 17  2  0
 17 18  1  0
 18 19  2  0
 19 20  1  0
  9  5  2  0
 12 10  1  0
 20 16  1  0
  3 21  1  0
  4 22  1  0
  7 23  1  0
 10 24  1  0
 11 25  1  0
 11 26  1  0
 12 27  1  0
 12 28  1  0
 15 29  1  0
 17 30  1  0
 19 31  1  0
 20 32  1  0
M  END
>  <Energy>  (889) 
1036.4305253794057

>  <compound_id>  (889) 
50853

>  <target_id>  (889) 
1

>  <reference_id>  (889) 
54

>  <inspiration_ids>  (889) 
[80, 54]

>  <energy_score>  (889) 
952.1281571292768

>  <distance_score>  (889) 
13.32906502384214

>  <path>  (889) 
/opt/xchem-fragalysis-2/maxwin/BulkDock/SCRATCH/511021/C50853-P54/C50853-P54.minimised.mol

>  <scratch_subdir>  (889) 
/opt/xchem-fragalysis-2/maxwin/BulkDock/SCRATCH/511021/C50853-P54

>  <fragmenstein_runtime>  (889) 
16.31033158302307

>  <fragmenstein_outcome>  (889) 
too moved

>  <fragmenstein_mode>  (889) 
expansion

>  <fragmenstein_error>  (889) 


$$$$
C50854-P80
     RDKit          3D

 36 38  0  0  0  0  0  0  0  0999 V2000
    6.7558  -10.4395   18.2113 O   0  0  0  0  0  0  0  0  0  0  0  0
    5.8586   -9.9833   17.5505 C   0  0  0  0  0  0  0  0  0  0  0  0
    4.9915  -10.6142   16.5509 N   0  0  0  0  0  0  0  0  0  0  0  0
    5.0109  -11.9955   15.9649 C   0  0  0  0  0  0  0  0  0  0  0  0
    3.7970  -12.9021   16.3721 C   0  0  0  0  0  0  0  0  0  0  0  0
    2.5834  -13.2058   15.3753 C   0  0  0  0  0  0  0  0  0  0  0  0
    3.1424  -14.6096   15.0930 C   0  0  0  0  0  0  0  0  0  0  0  0
    2.1496  -15.7436   15.0608 N   0  0  0  0  0  0  0  0  0  0  0  0
    0.8320  -15.6828   14.6739 C   0  0  0  0  0  0  0  0  0  0  0  0
    0.3005  -16.8897   14.6811 N   0  0  0  0  0  0  0  0  0  0  0  0
    1.3736  -17.6864   14.9659 C   0  0  0  0  0  0  0  0  0  0  0  0
    2.5375  -17.0370   15.1162 N   0  0  0  0  0  0  0  0  0  0  0  0
    3.9640  -14.4575   16.3980 C   0  0  0  0  0  0  0  0  0  0  0  0
    5.6464   -8.4098   17.7548 C   0  0  0  0  0  0  0  0  0  0  0  0
    4.8086   -7.8740   16.8336 F   0  0  0  0  0  0  0  0  0  0  0  0
    6.4322   -7.5817   18.5896 C   0  0  0  0  0  0  0  0  0  0  0  0
    7.5440   -6.3907   18.3614 C   0  0  0  0  0  0  0  0  0  0  0  0
    7.2063   -5.7693   16.8198 C   0  0  0  0  0  0  0  0  0  0  0  0
    8.5597   -4.5260   16.2580 N   0  0  0  0  0  0  0  0  0  0  0  0
   10.2353   -4.7461   17.2785 C   0  0  0  0  0  0  0  0  0  0  0  0
    9.5943   -6.0389   18.7706 N   0  0  0  0  0  0  0  0  0  0  0  0
    4.2883   -9.9474   16.2543 H   0  0  0  0  0  0  0  0  0  0  0  0
    5.0600  -11.8874   14.8775 H   0  0  0  0  0  0  0  0  0  0  0  0
    5.9389  -12.4589   16.3158 H   0  0  0  0  0  0  0  0  0  0  0  0
    3.5537  -12.5897   17.3890 H   0  0  0  0  0  0  0  0  0  0  0  0
    1.5819  -13.2633   15.7987 H   0  0  0  0  0  0  0  0  0  0  0  0
    2.5410  -12.5474   14.5016 H   0  0  0  0  0  0  0  0  0  0  0  0
    3.7789  -14.6326   14.1986 H   0  0  0  0  0  0  0  0  0  0  0  0
    0.3242  -14.7614   14.4303 H   0  0  0  0  0  0  0  0  0  0  0  0
    1.3123  -18.7646   15.0472 H   0  0  0  0  0  0  0  0  0  0  0  0
    4.9930  -14.8243   16.3510 H   0  0  0  0  0  0  0  0  0  0  0  0
    3.4779  -14.8733   17.2881 H   0  0  0  0  0  0  0  0  0  0  0  0
    5.6530   -6.7948   18.4470 H   0  0  0  0  0  0  0  0  0  0  0  0
    6.3470   -5.9285   16.1615 H   0  0  0  0  0  0  0  0  0  0  0  0
   11.2217   -4.9747   16.8516 H   0  0  0  0  0  0  0  0  0  0  0  0
    9.6660   -5.4761   19.6110 H   0  0  0  0  0  0  0  0  0  0  0  0
  1  2  2  0
  2  3  1  0
  3  4  1  0
  4  5  1  0
  5  6  1  0
  6  7  1  0
  7  8  1  0
  8  9  1  0
  9 10  2  0
 10 11  1  0
 11 12  2  0
  7 13  1  0
  2 14  1  0
 14 15  1  0
 14 16  2  3
 16 17  1  0
 17 18  2  0
 18 19  1  0
 19 20  2  0
 20 21  1  0
 13  5  1  0
 21 17  1  0
 12  8  1  0
  3 22  1  0
  4 23  1  0
  4 24  1  0
  5 25  1  0
  6 26  1  0
  6 27  1  0
  7 28  1  0
  9 29  1  0
 11 30  1  0
 13 31  1  0
 13 32  1  0
 16 33  1  0
 18 34  1  0
 20 35  1  0
 21 36  1  0
M  END
>  <Energy>  (890) 
808.81016494510197

>  <compound_id>  (890) 
50854

>  <target_id>  (890) 
1

>  <reference_id>  (890) 
80

>  <inspiration_ids>  (890) 
[80, 54]

>  <energy_score>  (890) 
741.9234366419707

>  <distance_score>  (890) 
16.34109886225685

>  <path>  (890) 
/opt/xchem-fragalysis-2/maxwin/BulkDock/SCRATCH/511021/C50854-P80/C50854-P80.minimised.mol

>  <scratch_subdir>  (890) 
/opt/xchem-fragalysis-2/maxwin/BulkDock/SCRATCH/511021/C50854-P80

>  <fragmenstein_runtime>  (890) 
24.270583152770996

>  <fragmenstein_outcome>  (890) 
too moved

>  <fragmenstein_mode>  (890) 
expansion

>  <fragmenstein_error>  (890) 


$$$$
C50854-P54
     RDKit          3D

 36 38  0  0  0  0  0  0  0  0999 V2000
    7.1377  -17.2580   29.3036 O   0  0  0  0  0  0  0  0  0  0  0  0
    7.1716  -17.9965   28.3554 C   0  0  0  0  0  0  0  0  0  0  0  0
    6.4330  -19.2387   28.0842 N   0  0  0  0  0  0  0  0  0  0  0  0
    5.4823  -20.0263   28.9454 C   0  0  0  0  0  0  0  0  0  0  0  0
    4.4171  -20.9371   28.2592 C   0  0  0  0  0  0  0  0  0  0  0  0
    3.5393  -21.9056   29.1906 C   0  0  0  0  0  0  0  0  0  0  0  0
    2.4119  -21.8171   28.1211 C   0  0  0  0  0  0  0  0  0  0  0  0
    1.0034  -21.8246   28.6222 N   0  0  0  0  0  0  0  0  0  0  0  0
    0.4620  -22.7700   29.4519 C   0  0  0  0  0  0  0  0  0  0  0  0
   -0.8417  -22.6152   29.5259 N   0  0  0  0  0  0  0  0  0  0  0  0
   -1.0652  -21.5652   28.6872 C   0  0  0  0  0  0  0  0  0  0  0  0
    0.0230  -21.0745   28.0720 N   0  0  0  0  0  0  0  0  0  0  0  0
    3.0099  -20.4093   27.8419 C   0  0  0  0  0  0  0  0  0  0  0  0
    8.2342  -17.5710   27.2591 C   0  0  0  0  0  0  0  0  0  0  0  0
    8.3545  -18.4144   26.2135 F   0  0  0  0  0  0  0  0  0  0  0  0
    8.9646  -16.4220   27.3804 C   0  0  0  0  0  0  0  0  0  0  0  0
    9.9976  -15.8666   26.5493 C   0  0  0  0  0  0  0  0  0  0  0  0
   10.8500  -16.2659   25.5331 C   0  0  0  0  0  0  0  0  0  0  0  0
   11.6448  -15.2273   25.0823 N   0  0  0  0  0  0  0  0  0  0  0  0
   11.3476  -14.2077   25.8497 C   0  0  0  0  0  0  0  0  0  0  0  0
   10.3450  -14.5284   26.7253 N   0  0  0  0  0  0  0  0  0  0  0  0
    6.7745  -19.6457   27.2184 H   0  0  0  0  0  0  0  0  0  0  0  0
    6.1347  -20.6627   29.5543 H   0  0  0  0  0  0  0  0  0  0  0  0
    5.0026  -19.3205   29.6312 H   0  0  0  0  0  0  0  0  0  0  0  0
    4.9056  -21.5047   27.4527 H   0  0  0  0  0  0  0  0  0  0  0  0
    3.9637  -22.9018   29.3449 H   0  0  0  0  0  0  0  0  0  0  0  0
    3.2896  -21.4734   30.1679 H   0  0  0  0  0  0  0  0  0  0  0  0
    2.5414  -22.5190   27.2873 H   0  0  0  0  0  0  0  0  0  0  0  0
    1.0508  -23.5270   29.9502 H   0  0  0  0  0  0  0  0  0  0  0  0
   -2.0513  -21.1531   28.5144 H   0  0  0  0  0  0  0  0  0  0  0  0
    2.9924  -20.0893   26.8073 H   0  0  0  0  0  0  0  0  0  0  0  0
    2.6129  -19.6324   28.5034 H   0  0  0  0  0  0  0  0  0  0  0  0
    8.7523  -15.8409   28.2783 H   0  0  0  0  0  0  0  0  0  0  0  0
   10.9207  -17.2478   25.0824 H   0  0  0  0  0  0  0  0  0  0  0  0
   11.7950  -13.2235   25.8090 H   0  0  0  0  0  0  0  0  0  0  0  0
    9.9161  -13.8857   27.3760 H   0  0  0  0  0  0  0  0  0  0  0  0
  1  2  2  0
  2  3  1  0
  3  4  1  0
  4  5  1  0
  5  6  1  0
  6  7  1  0
  7  8  1  0
  8  9  1  0
  9 10  2  0
 10 11  1  0
 11 12  2  0
  7 13  1  0
  2 14  1  0
 14 15  1  0
 14 16  2  3
 16 17  1  0
 17 18  2  0
 18 19  1  0
 19 20  2  0
 20 21  1  0
 13  5  1  0
 21 17  1  0
 12  8  1  0
  3 22  1  0
  4 23  1  0
  4 24  1  0
  5 25  1  0
  6 26  1  0
  6 27  1  0
  7 28  1  0
  9 29  1  0
 11 30  1  0
 13 31  1  0
 13 32  1  0
 16 33  1  0
 18 34  1  0
 20 35  1  0
 21 36  1  0
M  END
>  <Energy>  (891) 
50.68381711555385

>  <compound_id>  (891) 
50854

>  <target_id>  (891) 
1

>  <reference_id>  (891) 
54

>  <inspiration_ids>  (891) 
[80, 54]

>  <energy_score>  (891) 
-16.202911187574387

>  <distance_score>  (891) 
14.890252539990747

>  <path>  (891) 
/opt/xchem-fragalysis-2/maxwin/BulkDock/SCRATCH/511021/C50854-P54/C50854-P54.minimised.mol

>  <scratch_subdir>  (891) 
/opt/xchem-fragalysis-2/maxwin/BulkDock/SCRATCH/511021/C50854-P54

>  <fragmenstein_runtime>  (891) 
19.769697427749634

>  <fragmenstein_outcome>  (891) 
too moved

>  <fragmenstein_mode>  (891) 
expansion

>  <fragmenstein_error>  (891) 


$$$$
C50855-P80
     RDKit          3D

 38 40  0  0  0  0  0  0  0  0999 V2000
    2.1427  -11.9412   23.5729 C   0  0  0  0  0  0  0  0  0  0  0  0
    0.6568  -11.5041   22.6053 O   0  0  0  0  0  0  0  0  0  0  0  0
   -0.5119  -10.6896   21.7551 C   0  0  0  0  0  0  0  0  0  0  0  0
   -0.6125   -9.4743   21.8540 O   0  0  0  0  0  0  0  0  0  0  0  0
   -1.6928  -11.8323   20.6606 C   0  0  0  0  0  0  0  0  0  0  0  0
   -2.0745  -11.2389   19.1984 C   0  0  0  0  0  0  0  0  0  0  0  0
   -2.1577   -9.8717   18.6834 N   0  0  0  0  0  0  0  0  0  0  0  0
   -2.6243   -9.5767   17.4136 C   0  0  0  0  0  0  0  0  0  0  0  0
   -2.0585   -8.4846   16.9478 N   0  0  0  0  0  0  0  0  0  0  0  0
   -1.3483   -8.0559   18.0238 C   0  0  0  0  0  0  0  0  0  0  0  0
   -1.4924   -8.7987   19.1276 N   0  0  0  0  0  0  0  0  0  0  0  0
   -1.9662  -13.7287   20.5744 N   0  0  0  0  0  0  0  0  0  0  0  0
   -1.8700  -14.7992   19.2757 C   0  0  0  0  0  0  0  0  0  0  0  0
   -1.6832  -14.5214   18.1105 O   0  0  0  0  0  0  0  0  0  0  0  0
   -2.1765  -16.3985   19.5941 C   0  0  0  0  0  0  0  0  0  0  0  0
   -3.1586  -17.1810   18.9741 C   0  0  0  0  0  0  0  0  0  0  0  0
   -3.1161  -18.4347   19.5210 N   0  0  0  0  0  0  0  0  0  0  0  0
   -2.0010  -18.5043   20.2995 C   0  0  0  0  0  0  0  0  0  0  0  0
   -1.5712  -19.7742   21.1454 C   0  0  0  0  0  0  0  0  0  0  0  0
   -2.6088  -20.6914   21.7809 C   0  0  0  0  0  0  0  0  0  0  0  0
   -1.8041  -21.1678   20.6174 C   0  0  0  0  0  0  0  0  0  0  0  0
   -1.3666  -17.3346   20.2929 N   0  0  0  0  0  0  0  0  0  0  0  0
    1.8675  -11.7655   24.5797 H   0  0  0  0  0  0  0  0  0  0  0  0
    2.4238  -13.0030   23.7054 H   0  0  0  0  0  0  0  0  0  0  0  0
    2.9955  -11.5752   23.0371 H   0  0  0  0  0  0  0  0  0  0  0  0
   -2.6169  -11.5392   21.1489 H   0  0  0  0  0  0  0  0  0  0  0  0
   -3.1112  -11.5759   19.0576 H   0  0  0  0  0  0  0  0  0  0  0  0
   -1.5270  -11.8072   18.4445 H   0  0  0  0  0  0  0  0  0  0  0  0
   -3.2934  -10.2347   16.8774 H   0  0  0  0  0  0  0  0  0  0  0  0
   -0.7238   -7.1730   18.0105 H   0  0  0  0  0  0  0  0  0  0  0  0
   -2.2057  -14.2342   21.3898 H   0  0  0  0  0  0  0  0  0  0  0  0
   -3.8995  -16.9534   18.2219 H   0  0  0  0  0  0  0  0  0  0  0  0
   -3.7414  -19.2014   19.3178 H   0  0  0  0  0  0  0  0  0  0  0  0
   -0.6398  -19.6183   21.6834 H   0  0  0  0  0  0  0  0  0  0  0  0
   -2.3817  -21.1158   22.7524 H   0  0  0  0  0  0  0  0  0  0  0  0
   -3.6663  -20.5352   21.6033 H   0  0  0  0  0  0  0  0  0  0  0  0
   -1.0274  -21.9037   20.7984 H   0  0  0  0  0  0  0  0  0  0  0  0
   -2.2972  -21.2898   19.6605 H   0  0  0  0  0  0  0  0  0  0  0  0
  1  2  1  0
  2  3  1  0
  3  4  2  0
  3  5  1  0
  5  6  1  0
  6  7  1  0
  7  8  1  0
  8  9  2  0
  9 10  1  0
 10 11  2  0
  5 12  1  0
 12 13  1  0
 13 14  2  0
 13 15  1  0
 15 16  2  0
 16 17  1  0
 17 18  1  0
 18 19  1  0
 19 20  1  0
 20 21  1  0
 18 22  2  0
 11  7  1  0
 22 15  1  0
 21 19  1  0
  1 23  1  0
  1 24  1  0
  1 25  1  0
  5 26  1  0
  6 27  1  0
  6 28  1  0
  8 29  1  0
 10 30  1  0
 12 31  1  0
 16 32  1  0
 17 33  1  0
 19 34  1  0
 20 35  1  0
 20 36  1  0
 21 37  1  0
 21 38  1  0
M  END
>  <Energy>  (892) 
323.54508351049611

>  <compound_id>  (892) 
50855

>  <target_id>  (892) 
1

>  <reference_id>  (892) 
80

>  <inspiration_ids>  (892) 
[80, 54]

>  <energy_score>  (892) 
251.59482010054649

>  <distance_score>  (892) 
14.955908085631457

>  <path>  (892) 
/opt/xchem-fragalysis-2/maxwin/BulkDock/SCRATCH/511021/C50855-P80/C50855-P80.minimised.mol

>  <scratch_subdir>  (892) 
/opt/xchem-fragalysis-2/maxwin/BulkDock/SCRATCH/511021/C50855-P80

>  <fragmenstein_runtime>  (892) 
44.185060262680054

>  <fragmenstein_outcome>  (892) 
too moved

>  <fragmenstein_mode>  (892) 
expansion

>  <fragmenstein_error>  (892) 


$$$$
C50855-P54
     RDKit          3D

 38 40  0  0  0  0  0  0  0  0999 V2000
    0.4439  -11.4956   23.2417 C   0  0  0  0  0  0  0  0  0  0  0  0
   -1.0582  -12.5450   22.7006 O   0  0  0  0  0  0  0  0  0  0  0  0
   -1.4899  -13.0654   21.5516 C   0  0  0  0  0  0  0  0  0  0  0  0
   -0.6985  -12.8994   20.6340 O   0  0  0  0  0  0  0  0  0  0  0  0
   -3.3224  -13.8778   21.3357 C   0  0  0  0  0  0  0  0  0  0  0  0
   -2.7080  -13.9477   19.3305 C   0  0  0  0  0  0  0  0  0  0  0  0
   -2.7938  -15.0232   18.2968 N   0  0  0  0  0  0  0  0  0  0  0  0
   -1.7784  -15.9302   18.0167 C   0  0  0  0  0  0  0  0  0  0  0  0
   -1.5827  -16.0126   16.7201 N   0  0  0  0  0  0  0  0  0  0  0  0
   -2.5887  -15.2508   16.2133 C   0  0  0  0  0  0  0  0  0  0  0  0
   -3.3840  -14.6727   17.1180 N   0  0  0  0  0  0  0  0  0  0  0  0
   -4.8064  -14.9565   20.9452 N   0  0  0  0  0  0  0  0  0  0  0  0
   -6.3513  -14.6887   21.1185 C   0  0  0  0  0  0  0  0  0  0  0  0
   -6.9355  -13.6937   21.4668 O   0  0  0  0  0  0  0  0  0  0  0  0
   -7.1934  -15.9327   20.9040 C   0  0  0  0  0  0  0  0  0  0  0  0
   -8.5801  -16.0023   20.9261 C   0  0  0  0  0  0  0  0  0  0  0  0
   -8.9107  -17.3294   21.0590 N   0  0  0  0  0  0  0  0  0  0  0  0
   -7.7459  -18.0400   21.1375 C   0  0  0  0  0  0  0  0  0  0  0  0
   -7.6186  -19.5902   21.3108 C   0  0  0  0  0  0  0  0  0  0  0  0
   -8.8318  -20.4864   21.4340 C   0  0  0  0  0  0  0  0  0  0  0  0
   -8.0279  -20.4852   20.1744 C   0  0  0  0  0  0  0  0  0  0  0  0
   -6.7079  -17.2301   21.0607 N   0  0  0  0  0  0  0  0  0  0  0  0
    0.1433  -10.4860   23.5811 H   0  0  0  0  0  0  0  0  0  0  0  0
    0.9272  -11.8769   24.1380 H   0  0  0  0  0  0  0  0  0  0  0  0
    1.0473  -11.3271   22.3125 H   0  0  0  0  0  0  0  0  0  0  0  0
   -3.1797  -14.2923   22.3475 H   0  0  0  0  0  0  0  0  0  0  0  0
   -1.7770  -14.0267   19.7759 H   0  0  0  0  0  0  0  0  0  0  0  0
   -2.9657  -13.0601   18.7134 H   0  0  0  0  0  0  0  0  0  0  0  0
   -1.1652  -16.3761   18.7871 H   0  0  0  0  0  0  0  0  0  0  0  0
   -2.7585  -15.1197   15.1525 H   0  0  0  0  0  0  0  0  0  0  0  0
   -4.6696  -15.8545   20.5635 H   0  0  0  0  0  0  0  0  0  0  0  0
   -9.3313  -15.2248   20.9129 H   0  0  0  0  0  0  0  0  0  0  0  0
   -9.8400  -17.7288   21.0986 H   0  0  0  0  0  0  0  0  0  0  0  0
   -6.7132  -19.8877   21.8289 H   0  0  0  0  0  0  0  0  0  0  0  0
   -9.8303  -20.0707   21.3911 H   0  0  0  0  0  0  0  0  0  0  0  0
   -8.7591  -21.3748   22.0540 H   0  0  0  0  0  0  0  0  0  0  0  0
   -8.4656  -20.0407   19.2881 H   0  0  0  0  0  0  0  0  0  0  0  0
   -7.4158  -21.3565   19.9668 H   0  0  0  0  0  0  0  0  0  0  0  0
  1  2  1  0
  2  3  1  0
  3  4  2  0
  3  5  1  0
  5  6  1  0
  6  7  1  0
  7  8  1  0
  8  9  2  0
  9 10  1  0
 10 11  2  0
  5 12  1  0
 12 13  1  0
 13 14  2  0
 13 15  1  0
 15 16  2  0
 16 17  1  0
 17 18  1  0
 18 19  1  0
 19 20  1  0
 20 21  1  0
 18 22  2  0
 11  7  1  0
 22 15  1  0
 21 19  1  0
  1 23  1  0
  1 24  1  0
  1 25  1  0
  5 26  1  0
  6 27  1  0
  6 28  1  0
  8 29  1  0
 10 30  1  0
 12 31  1  0
 16 32  1  0
 17 33  1  0
 19 34  1  0
 20 35  1  0
 20 36  1  0
 21 37  1  0
 21 38  1  0
M  END
>  <Energy>  (893) 
405.39997299648229

>  <compound_id>  (893) 
50855

>  <target_id>  (893) 
1

>  <reference_id>  (893) 
54

>  <inspiration_ids>  (893) 
[80, 54]

>  <energy_score>  (893) 
333.44970958653437

>  <distance_score>  (893) 
15.097076117489436

>  <path>  (893) 
/opt/xchem-fragalysis-2/maxwin/BulkDock/SCRATCH/511021/C50855-P54/C50855-P54.minimised.mol

>  <scratch_subdir>  (893) 
/opt/xchem-fragalysis-2/maxwin/BulkDock/SCRATCH/511021/C50855-P54

>  <fragmenstein_runtime>  (893) 
31.198748350143433

>  <fragmenstein_outcome>  (893) 
too moved

>  <fragmenstein_mode>  (893) 
expansion

>  <fragmenstein_error>  (893) 


$$$$
C50856-P80
     RDKit          3D

 40 41  0  0  0  0  0  0  0  0999 V2000
    4.9620  -19.3307   13.9258 C   0  0  0  0  0  0  0  0  0  0  0  0
    3.9753  -18.5264   14.5755 O   0  0  0  0  0  0  0  0  0  0  0  0
    3.7878  -18.8192   15.8898 C   0  0  0  0  0  0  0  0  0  0  0  0
    4.4310  -19.6432   16.5305 O   0  0  0  0  0  0  0  0  0  0  0  0
    2.7224  -17.9218   16.4936 C   0  0  0  0  0  0  0  0  0  0  0  0
    3.5324  -16.5917   17.0181 C   0  0  0  0  0  0  0  0  0  0  0  0
    4.1409  -15.5546   16.1677 N   0  0  0  0  0  0  0  0  0  0  0  0
    5.4238  -15.5229   15.6743 C   0  0  0  0  0  0  0  0  0  0  0  0
    5.7741  -14.2940   15.3559 N   0  0  0  0  0  0  0  0  0  0  0  0
    4.6799  -13.5649   15.7107 C   0  0  0  0  0  0  0  0  0  0  0  0
    3.6647  -14.2759   16.2145 N   0  0  0  0  0  0  0  0  0  0  0  0
    1.9532  -18.8355   17.5653 N   0  0  0  0  0  0  0  0  0  0  0  0
    0.5163  -19.2263   17.6640 C   0  0  0  0  0  0  0  0  0  0  0  0
   -0.3993  -19.0153   16.9192 O   0  0  0  0  0  0  0  0  0  0  0  0
    0.0950  -19.9761   19.0175 C   0  0  0  0  0  0  0  0  0  0  0  0
    0.8904  -20.4603   20.0403 C   0  0  0  0  0  0  0  0  0  0  0  0
    0.0629  -20.9471   21.0347 N   0  0  0  0  0  0  0  0  0  0  0  0
   -1.2502  -20.8733   20.6282 C   0  0  0  0  0  0  0  0  0  0  0  0
   -2.3910  -21.5266   21.4620 C   0  0  0  0  0  0  0  0  0  0  0  0
   -2.1589  -21.4908   22.9856 C   0  0  0  0  0  0  0  0  0  0  0  0
   -3.7777  -20.9838   21.1299 C   0  0  0  0  0  0  0  0  0  0  0  0
   -1.2675  -20.2762   19.4309 N   0  0  0  0  0  0  0  0  0  0  0  0
    5.9468  -19.1562   14.3701 H   0  0  0  0  0  0  0  0  0  0  0  0
    4.6923  -20.3899   13.9824 H   0  0  0  0  0  0  0  0  0  0  0  0
    4.9986  -19.0373   12.8732 H   0  0  0  0  0  0  0  0  0  0  0  0
    1.9865  -17.6627   15.7257 H   0  0  0  0  0  0  0  0  0  0  0  0
    2.8358  -16.0142   17.6203 H   0  0  0  0  0  0  0  0  0  0  0  0
    4.3482  -16.9226   17.6721 H   0  0  0  0  0  0  0  0  0  0  0  0
    6.0470  -16.4028   15.6026 H   0  0  0  0  0  0  0  0  0  0  0  0
    4.6172  -12.4894   15.6053 H   0  0  0  0  0  0  0  0  0  0  0  0
    2.4630  -19.2520   18.3298 H   0  0  0  0  0  0  0  0  0  0  0  0
    1.9602  -20.4825   20.1809 H   0  0  0  0  0  0  0  0  0  0  0  0
    0.3844  -21.3420   21.9066 H   0  0  0  0  0  0  0  0  0  0  0  0
   -2.3927  -22.5877   21.1746 H   0  0  0  0  0  0  0  0  0  0  0  0
   -1.8123  -20.5098   23.3102 H   0  0  0  0  0  0  0  0  0  0  0  0
   -1.3724  -22.2036   23.2601 H   0  0  0  0  0  0  0  0  0  0  0  0
   -3.0564  -21.7663   23.5477 H   0  0  0  0  0  0  0  0  0  0  0  0
   -4.1075  -21.3807   20.1624 H   0  0  0  0  0  0  0  0  0  0  0  0
   -4.5221  -21.2695   21.8777 H   0  0  0  0  0  0  0  0  0  0  0  0
   -3.7784  -19.8988   21.0215 H   0  0  0  0  0  0  0  0  0  0  0  0
  1  2  1  0
  2  3  1  0
  3  4  2  0
  3  5  1  0
  5  6  1  0
  6  7  1  0
  7  8  1  0
  8  9  2  0
  9 10  1  0
 10 11  2  0
  5 12  1  0
 12 13  1  0
 13 14  2  0
 13 15  1  0
 15 16  2  0
 16 17  1  0
 17 18  1  0
 18 19  1  0
 19 20  1  0
 19 21  1  0
 18 22  2  0
 11  7  1  0
 22 15  1  0
  1 23  1  0
  1 24  1  0
  1 25  1  0
  5 26  1  0
  6 27  1  0
  6 28  1  0
  8 29  1  0
 10 30  1  0
 12 31  1  0
 16 32  1  0
 17 33  1  0
 19 34  1  0
 20 35  1  0
 20 36  1  0
 20 37  1  0
 21 38  1  0
 21 39  1  0
 21 40  1  0
M  END
>  <Energy>  (894) 
81.833247883888902

>  <compound_id>  (894) 
50856

>  <target_id>  (894) 
1

>  <reference_id>  (894) 
80

>  <inspiration_ids>  (894) 
[80, 54]

>  <energy_score>  (894) 
15.404255795199447

>  <distance_score>  (894) 
14.412109815144934

>  <path>  (894) 
/opt/xchem-fragalysis-2/maxwin/BulkDock/SCRATCH/511021/C50856-P80/C50856-P80.minimised.mol

>  <scratch_subdir>  (894) 
/opt/xchem-fragalysis-2/maxwin/BulkDock/SCRATCH/511021/C50856-P80

>  <fragmenstein_runtime>  (894) 
47.7289252281189

>  <fragmenstein_outcome>  (894) 
too moved

>  <fragmenstein_mode>  (894) 
expansion

>  <fragmenstein_error>  (894) 


$$$$
C50856-P54
     RDKit          3D

 40 41  0  0  0  0  0  0  0  0999 V2000
   -4.1534   -1.5293   28.1198 C   0  0  0  0  0  0  0  0  0  0  0  0
   -3.0536   -2.4320   27.9948 O   0  0  0  0  0  0  0  0  0  0  0  0
   -3.3707   -3.6030   27.3796 C   0  0  0  0  0  0  0  0  0  0  0  0
   -4.4886   -3.9016   26.9724 O   0  0  0  0  0  0  0  0  0  0  0  0
   -2.1856   -4.5692   27.3259 C   0  0  0  0  0  0  0  0  0  0  0  0
   -0.8117   -3.8614   27.4860 C   0  0  0  0  0  0  0  0  0  0  0  0
   -0.3018   -2.9353   26.4678 N   0  0  0  0  0  0  0  0  0  0  0  0
    0.9220   -2.3053   26.4727 C   0  0  0  0  0  0  0  0  0  0  0  0
    1.0821   -1.5942   25.3785 N   0  0  0  0  0  0  0  0  0  0  0  0
   -0.1168   -1.7596   24.7476 C   0  0  0  0  0  0  0  0  0  0  0  0
   -0.9758   -2.5937   25.3515 N   0  0  0  0  0  0  0  0  0  0  0  0
   -2.5737   -5.8828   28.1293 N   0  0  0  0  0  0  0  0  0  0  0  0
   -3.3829   -6.0658   29.3389 C   0  0  0  0  0  0  0  0  0  0  0  0
   -3.8863   -5.2578   30.0676 O   0  0  0  0  0  0  0  0  0  0  0  0
   -3.7816   -7.5806   29.7339 C   0  0  0  0  0  0  0  0  0  0  0  0
   -4.6392   -7.8446   30.8010 C   0  0  0  0  0  0  0  0  0  0  0  0
   -4.9440   -9.1786   30.8087 N   0  0  0  0  0  0  0  0  0  0  0  0
   -4.2940   -9.7860   29.7647 C   0  0  0  0  0  0  0  0  0  0  0  0
   -4.4693  -11.3121   29.5334 C   0  0  0  0  0  0  0  0  0  0  0  0
   -3.9508  -12.1635   30.7037 C   0  0  0  0  0  0  0  0  0  0  0  0
   -5.9334  -11.7254   29.2887 C   0  0  0  0  0  0  0  0  0  0  0  0
   -3.5852   -8.8497   29.0943 N   0  0  0  0  0  0  0  0  0  0  0  0
   -3.7932   -0.6245   28.6170 H   0  0  0  0  0  0  0  0  0  0  0  0
   -4.5368   -1.2524   27.1327 H   0  0  0  0  0  0  0  0  0  0  0  0
   -4.9438   -1.9710   28.7349 H   0  0  0  0  0  0  0  0  0  0  0  0
   -2.1587   -4.9114   26.2827 H   0  0  0  0  0  0  0  0  0  0  0  0
   -0.1097   -4.6648   27.4777 H   0  0  0  0  0  0  0  0  0  0  0  0
   -0.7393   -3.3470   28.4504 H   0  0  0  0  0  0  0  0  0  0  0  0
    1.6287   -2.4106   27.2828 H   0  0  0  0  0  0  0  0  0  0  0  0
   -0.3688   -1.2793   23.8104 H   0  0  0  0  0  0  0  0  0  0  0  0
   -2.2407   -6.7929   27.8110 H   0  0  0  0  0  0  0  0  0  0  0  0
   -5.0780   -7.1699   31.5235 H   0  0  0  0  0  0  0  0  0  0  0  0
   -5.5568   -9.6416   31.4653 H   0  0  0  0  0  0  0  0  0  0  0  0
   -3.8689  -11.5531   28.6506 H   0  0  0  0  0  0  0  0  0  0  0  0
   -4.5226  -11.9820   31.6204 H   0  0  0  0  0  0  0  0  0  0  0  0
   -2.9028  -11.9243   30.9154 H   0  0  0  0  0  0  0  0  0  0  0  0
   -4.0108  -13.2314   30.4679 H   0  0  0  0  0  0  0  0  0  0  0  0
   -6.3524  -11.1692   28.4433 H   0  0  0  0  0  0  0  0  0  0  0  0
   -6.0113  -12.7950   29.0682 H   0  0  0  0  0  0  0  0  0  0  0  0
   -6.5609  -11.5151   30.1619 H   0  0  0  0  0  0  0  0  0  0  0  0
  1  2  1  0
  2  3  1  0
  3  4  2  0
  3  5  1  0
  5  6  1  0
  6  7  1  0
  7  8  1  0
  8  9  2  0
  9 10  1  0
 10 11  2  0
  5 12  1  0
 12 13  1  0
 13 14  2  0
 13 15  1  0
 15 16  2  0
 16 17  1  0
 17 18  1  0
 18 19  1  0
 19 20  1  0
 19 21  1  0
 18 22  2  0
 11  7  1  0
 22 15  1  0
  1 23  1  0
  1 24  1  0
  1 25  1  0
  5 26  1  0
  6 27  1  0
  6 28  1  0
  8 29  1  0
 10 30  1  0
 12 31  1  0
 16 32  1  0
 17 33  1  0
 19 34  1  0
 20 35  1  0
 20 36  1  0
 20 37  1  0
 21 38  1  0
 21 39  1  0
 21 40  1  0
M  END
>  <Energy>  (895) 
71.465178202124974

>  <compound_id>  (895) 
50856

>  <target_id>  (895) 
1

>  <reference_id>  (895) 
54

>  <inspiration_ids>  (895) 
[80, 54]

>  <energy_score>  (895) 
5.036186113433587

>  <distance_score>  (895) 
15.416069605285388

>  <path>  (895) 
/opt/xchem-fragalysis-2/maxwin/BulkDock/SCRATCH/511021/C50856-P54/C50856-P54.minimised.mol

>  <scratch_subdir>  (895) 
/opt/xchem-fragalysis-2/maxwin/BulkDock/SCRATCH/511021/C50856-P54

>  <fragmenstein_runtime>  (895) 
24.069877862930298

>  <fragmenstein_outcome>  (895) 
too moved

>  <fragmenstein_mode>  (895) 
expansion

>  <fragmenstein_error>  (895) 


$$$$
C50857-P80
     RDKit          3D

 47 48  0  0  0  0  0  0  0  0999 V2000
   -0.5912  -14.3619   24.1192 C   0  0  0  0  0  0  0  0  0  0  0  0
   -1.2543  -15.6201   23.3811 C   0  0  0  0  0  0  0  0  0  0  0  0
   -0.1878  -17.0807   22.0806 N   0  0  0  0  0  0  0  0  0  0  0  0
   -1.4082  -18.6727   22.9895 C   0  0  0  0  0  0  0  0  0  0  0  0
   -1.9819  -18.4289   25.1674 C   0  0  0  0  0  0  0  0  0  0  0  0
   -3.0359  -17.8376   26.1930 N   0  0  0  0  0  0  0  0  0  0  0  0
   -3.3771  -16.4396   26.5404 C   0  0  0  0  0  0  0  0  0  0  0  0
   -2.9968  -15.4018   26.0717 O   0  0  0  0  0  0  0  0  0  0  0  0
   -4.3508  -16.4527   27.7421 C   0  0  0  0  0  0  0  0  0  0  0  0
   -4.1286  -17.5924   28.5793 O   0  0  0  0  0  0  0  0  0  0  0  0
   -3.7046  -17.2544   29.9003 C   0  0  0  0  0  0  0  0  0  0  0  0
   -4.8430  -16.7318   30.7096 C   0  0  0  0  0  0  0  0  0  0  0  0
   -5.4201  -15.5552   30.5426 N   0  0  0  0  0  0  0  0  0  0  0  0
   -6.2104  -15.3632   31.6407 C   0  0  0  0  0  0  0  0  0  0  0  0
   -6.1866  -16.4664   32.4531 C   0  0  0  0  0  0  0  0  0  0  0  0
   -5.3263  -17.3349   31.8442 N   0  0  0  0  0  0  0  0  0  0  0  0
   -4.8840  -18.5711   32.4241 C   0  0  0  0  0  0  0  0  0  0  0  0
   -0.1836  -16.5224   20.7060 C   0  0  0  0  0  0  0  0  0  0  0  0
   -0.9650  -16.7420   19.8521 O   0  0  0  0  0  0  0  0  0  0  0  0
    1.5412  -15.3997   20.4054 C   0  0  0  0  0  0  0  0  0  0  0  0
    2.6412  -14.3536   20.9464 C   0  0  0  0  0  0  0  0  0  0  0  0
    3.8106  -13.1824   20.6254 N   0  0  0  0  0  0  0  0  0  0  0  0
    4.2095  -13.2285   19.3335 C   0  0  0  0  0  0  0  0  0  0  0  0
    3.4260  -14.1891   18.5380 C   0  0  0  0  0  0  0  0  0  0  0  0
    2.1731  -15.0024   18.8874 N   0  0  0  0  0  0  0  0  0  0  0  0
   -1.2073  -13.9991   24.9529 H   0  0  0  0  0  0  0  0  0  0  0  0
    0.4359  -14.3638   24.4372 H   0  0  0  0  0  0  0  0  0  0  0  0
   -0.3268  -13.7542   23.2710 H   0  0  0  0  0  0  0  0  0  0  0  0
   -2.2849  -15.5675   23.9214 H   0  0  0  0  0  0  0  0  0  0  0  0
   -1.2249  -14.9189   22.4922 H   0  0  0  0  0  0  0  0  0  0  0  0
   -1.9980  -19.0973   22.1661 H   0  0  0  0  0  0  0  0  0  0  0  0
   -0.6639  -19.4204   23.2570 H   0  0  0  0  0  0  0  0  0  0  0  0
   -2.3917  -19.4551   25.4575 H   0  0  0  0  0  0  0  0  0  0  0  0
   -1.1101  -18.2014   25.8531 H   0  0  0  0  0  0  0  0  0  0  0  0
   -3.4862  -18.4676   26.8590 H   0  0  0  0  0  0  0  0  0  0  0  0
   -4.2243  -15.5051   28.2763 H   0  0  0  0  0  0  0  0  0  0  0  0
   -5.3693  -16.5074   27.3459 H   0  0  0  0  0  0  0  0  0  0  0  0
   -3.2779  -18.1593   30.3418 H   0  0  0  0  0  0  0  0  0  0  0  0
   -2.8926  -16.5185   29.8563 H   0  0  0  0  0  0  0  0  0  0  0  0
   -6.7693  -14.4469   31.7792 H   0  0  0  0  0  0  0  0  0  0  0  0
   -6.6804  -16.6906   33.3880 H   0  0  0  0  0  0  0  0  0  0  0  0
   -4.9214  -19.3696   31.6869 H   0  0  0  0  0  0  0  0  0  0  0  0
   -5.5147  -18.7968   33.2868 H   0  0  0  0  0  0  0  0  0  0  0  0
   -3.8536  -18.4318   32.7650 H   0  0  0  0  0  0  0  0  0  0  0  0
    3.0022  -14.3842   22.0211 H   0  0  0  0  0  0  0  0  0  0  0  0
    5.1527  -12.7434   19.2271 H   0  0  0  0  0  0  0  0  0  0  0  0
    3.9322  -14.7217   17.7606 H   0  0  0  0  0  0  0  0  0  0  0  0
  1  2  1  0
  2  3  1  0
  3  4  1  0
  4  5  1  0
  5  6  1  0
  6  7  1  0
  7  8  2  0
  7  9  1  0
  9 10  1  0
 10 11  1  0
 11 12  1  0
 12 13  2  0
 13 14  1  0
 14 15  2  0
 15 16  1  0
 16 17  1  0
  3 18  1  0
 18 19  2  0
 18 20  1  0
 20 21  2  0
 21 22  1  0
 22 23  2  0
 23 24  1  0
 24 25  2  0
 16 12  1  0
 25 20  1  0
  1 26  1  0
  1 27  1  0
  1 28  1  0
  2 29  1  0
  2 30  1  0
  4 31  1  0
  4 32  1  0
  5 33  1  0
  5 34  1  0
  6 35  1  0
  9 36  1  0
  9 37  1  0
 11 38  1  0
 11 39  1  0
 14 40  1  0
 15 41  1  0
 17 42  1  0
 17 43  1  0
 17 44  1  0
 21 45  1  0
 23 46  1  0
 24 47  1  0
M  END
>  <Energy>  (896) 
1072.1932493227127

>  <compound_id>  (896) 
50857

>  <target_id>  (896) 
1

>  <reference_id>  (896) 
80

>  <inspiration_ids>  (896) 
[80, 54]

>  <energy_score>  (896) 
894.7384361591605

>  <distance_score>  (896) 
12.595068413755238

>  <path>  (896) 
/opt/xchem-fragalysis-2/maxwin/BulkDock/SCRATCH/511021/C50857-P80/C50857-P80.minimised.mol

>  <scratch_subdir>  (896) 
/opt/xchem-fragalysis-2/maxwin/BulkDock/SCRATCH/511021/C50857-P80

>  <fragmenstein_runtime>  (896) 
51.51815724372864

>  <fragmenstein_outcome>  (896) 
too moved

>  <fragmenstein_mode>  (896) 
expansion

>  <fragmenstein_error>  (896) 


$$$$
C50857-P54
     RDKit          3D

 47 48  0  0  0  0  0  0  0  0999 V2000
    9.6788  -21.5066   24.9606 C   0  0  0  0  0  0  0  0  0  0  0  0
    8.8501  -21.3652   23.6722 C   0  0  0  0  0  0  0  0  0  0  0  0
    8.1749  -20.0653   23.3145 N   0  0  0  0  0  0  0  0  0  0  0  0
    7.0875  -20.5893   24.4339 C   0  0  0  0  0  0  0  0  0  0  0  0
    6.1263  -21.8537   24.3163 C   0  0  0  0  0  0  0  0  0  0  0  0
    4.7941  -22.0206   25.0222 N   0  0  0  0  0  0  0  0  0  0  0  0
    4.3234  -21.5291   26.3299 C   0  0  0  0  0  0  0  0  0  0  0  0
    4.8527  -20.8029   27.1301 O   0  0  0  0  0  0  0  0  0  0  0  0
    2.8337  -22.2314   26.7590 C   0  0  0  0  0  0  0  0  0  0  0  0
    1.6679  -21.6093   27.3807 O   0  0  0  0  0  0  0  0  0  0  0  0
    0.7806  -22.5620   28.0516 C   0  0  0  0  0  0  0  0  0  0  0  0
   -0.6641  -22.2018   27.8054 C   0  0  0  0  0  0  0  0  0  0  0  0
   -1.3510  -22.5492   26.7296 N   0  0  0  0  0  0  0  0  0  0  0  0
   -2.5473  -21.8915   26.7967 C   0  0  0  0  0  0  0  0  0  0  0  0
   -2.6386  -21.1832   27.9648 C   0  0  0  0  0  0  0  0  0  0  0  0
   -1.4659  -21.4315   28.6234 N   0  0  0  0  0  0  0  0  0  0  0  0
   -1.1204  -20.8590   29.8951 C   0  0  0  0  0  0  0  0  0  0  0  0
    9.1522  -18.9562   23.3685 C   0  0  0  0  0  0  0  0  0  0  0  0
    9.4534  -18.2227   24.2797 O   0  0  0  0  0  0  0  0  0  0  0  0
    9.8683  -18.5574   22.0484 C   0  0  0  0  0  0  0  0  0  0  0  0
    9.5699  -17.3653   21.3538 C   0  0  0  0  0  0  0  0  0  0  0  0
   10.3855  -16.7598   20.4249 N   0  0  0  0  0  0  0  0  0  0  0  0
   11.5428  -17.4004   20.2062 C   0  0  0  0  0  0  0  0  0  0  0  0
   11.8547  -18.5850   20.8686 C   0  0  0  0  0  0  0  0  0  0  0  0
   11.0506  -19.1765   21.7995 N   0  0  0  0  0  0  0  0  0  0  0  0
   10.2646  -20.6095   25.1766 H   0  0  0  0  0  0  0  0  0  0  0  0
    9.0687  -21.7412   25.8369 H   0  0  0  0  0  0  0  0  0  0  0  0
   10.3824  -22.3394   24.8465 H   0  0  0  0  0  0  0  0  0  0  0  0
    9.6272  -21.4162   22.8913 H   0  0  0  0  0  0  0  0  0  0  0  0
    8.2766  -22.2611   23.4087 H   0  0  0  0  0  0  0  0  0  0  0  0
    6.3821  -19.7522   24.3766 H   0  0  0  0  0  0  0  0  0  0  0  0
    7.5062  -20.5125   25.4402 H   0  0  0  0  0  0  0  0  0  0  0  0
    5.8993  -22.0120   23.2564 H   0  0  0  0  0  0  0  0  0  0  0  0
    6.6850  -22.7353   24.6509 H   0  0  0  0  0  0  0  0  0  0  0  0
    4.1179  -22.6860   24.6533 H   0  0  0  0  0  0  0  0  0  0  0  0
    2.4656  -22.7953   25.8984 H   0  0  0  0  0  0  0  0  0  0  0  0
    3.1785  -22.9948   27.4732 H   0  0  0  0  0  0  0  0  0  0  0  0
    1.0263  -22.5518   29.1172 H   0  0  0  0  0  0  0  0  0  0  0  0
    0.9548  -23.5724   27.6634 H   0  0  0  0  0  0  0  0  0  0  0  0
   -3.2498  -21.9252   25.9725 H   0  0  0  0  0  0  0  0  0  0  0  0
   -3.3892  -20.5084   28.3429 H   0  0  0  0  0  0  0  0  0  0  0  0
   -1.9938  -20.3754   30.3396 H   0  0  0  0  0  0  0  0  0  0  0  0
   -0.7552  -21.6511   30.5524 H   0  0  0  0  0  0  0  0  0  0  0  0
   -0.3353  -20.1154   29.7330 H   0  0  0  0  0  0  0  0  0  0  0  0
    8.6658  -16.8052   21.5406 H   0  0  0  0  0  0  0  0  0  0  0  0
   12.2154  -16.9574   19.4821 H   0  0  0  0  0  0  0  0  0  0  0  0
   12.7927  -19.0962   20.6760 H   0  0  0  0  0  0  0  0  0  0  0  0
  1  2  1  0
  2  3  1  0
  3  4  1  0
  4  5  1  0
  5  6  1  0
  6  7  1  0
  7  8  2  0
  7  9  1  0
  9 10  1  0
 10 11  1  0
 11 12  1  0
 12 13  2  0
 13 14  1  0
 14 15  2  0
 15 16  1  0
 16 17  1  0
  3 18  1  0
 18 19  2  0
 18 20  1  0
 20 21  2  0
 21 22  1  0
 22 23  2  0
 23 24  1  0
 24 25  2  0
 16 12  1  0
 25 20  1  0
  1 26  1  0
  1 27  1  0
  1 28  1  0
  2 29  1  0
  2 30  1  0
  4 31  1  0
  4 32  1  0
  5 33  1  0
  5 34  1  0
  6 35  1  0
  9 36  1  0
  9 37  1  0
 11 38  1  0
 11 39  1  0
 14 40  1  0
 15 41  1  0
 17 42  1  0
 17 43  1  0
 17 44  1  0
 21 45  1  0
 23 46  1  0
 24 47  1  0
M  END
>  <Energy>  (897) 
264.11123209723661

>  <compound_id>  (897) 
50857

>  <target_id>  (897) 
1

>  <reference_id>  (897) 
54

>  <inspiration_ids>  (897) 
[80, 54]

>  <energy_score>  (897) 
86.6564189336865

>  <distance_score>  (897) 
14.19155442330207

>  <path>  (897) 
/opt/xchem-fragalysis-2/maxwin/BulkDock/SCRATCH/511021/C50857-P54/C50857-P54.minimised.mol

>  <scratch_subdir>  (897) 
/opt/xchem-fragalysis-2/maxwin/BulkDock/SCRATCH/511021/C50857-P54

>  <fragmenstein_runtime>  (897) 
49.71655011177063

>  <fragmenstein_outcome>  (897) 
too moved

>  <fragmenstein_mode>  (897) 
expansion

>  <fragmenstein_error>  (897) 


$$$$
C28787-P80
     RDKit          3D

 43 44  0  0  0  0  0  0  0  0999 V2000
    9.8068  -10.9656   15.9197 C   0  0  0  0  0  0  0  0  0  0  0  0
    9.1259  -10.8661   17.2251 C   0  0  0  0  0  0  0  0  0  0  0  0
    7.8548  -10.6503   17.5225 N   0  0  0  0  0  0  0  0  0  0  0  0
    7.3182  -10.7681   19.1386 C   0  0  0  0  0  0  0  0  0  0  0  0
    6.1625  -11.9759   20.1008 C   0  0  0  0  0  0  0  0  0  0  0  0
    6.6773  -12.2861   21.0945 O   0  0  0  0  0  0  0  0  0  0  0  0
    4.4791  -12.5304   19.8180 N   0  0  0  0  0  0  0  0  0  0  0  0
    3.2199  -13.4767   20.9515 C   0  0  0  0  0  0  0  0  0  0  0  0
    3.2396  -12.5315   22.6365 C   0  0  0  0  0  0  0  0  0  0  0  0
    1.7959  -15.0004   20.5030 C   0  0  0  0  0  0  0  0  0  0  0  0
   -0.0626  -16.1983   20.3672 C   0  0  0  0  0  0  0  0  0  0  0  0
   -1.7286  -17.3288   20.7849 N   0  0  0  0  0  0  0  0  0  0  0  0
   -3.5794  -16.8291   21.2532 C   0  0  0  0  0  0  0  0  0  0  0  0
   -3.7928  -15.7199   21.1985 O   0  0  0  0  0  0  0  0  0  0  0  0
   -5.3856  -17.9268   22.1121 C   0  0  0  0  0  0  0  0  0  0  0  0
   -5.6717  -18.9646   24.0246 C   0  0  0  0  0  0  0  0  0  0  0  0
   -6.1020  -19.0913   25.9131 C   0  0  0  0  0  0  0  0  0  0  0  0
   -5.3863  -19.8638   26.9717 N   0  0  0  0  0  0  0  0  0  0  0  0
   -4.4638  -20.8226   26.8809 C   0  0  0  0  0  0  0  0  0  0  0  0
   -3.9847  -21.1473   25.7505 N   0  0  0  0  0  0  0  0  0  0  0  0
   -4.4999  -20.3324   24.7453 C   0  0  0  0  0  0  0  0  0  0  0  0
    8.7673  -10.5612   19.3243 C   0  0  0  0  0  0  0  0  0  0  0  0
    9.7015  -11.1094   18.4263 N   0  0  0  0  0  0  0  0  0  0  0  0
   10.8637  -10.6951   16.0020 H   0  0  0  0  0  0  0  0  0  0  0  0
    9.3408  -10.2934   15.1939 H   0  0  0  0  0  0  0  0  0  0  0  0
    9.7486  -11.9881   15.5354 H   0  0  0  0  0  0  0  0  0  0  0  0
    4.1472  -12.1121   18.9568 H   0  0  0  0  0  0  0  0  0  0  0  0
    4.1634  -13.7469   21.1767 H   0  0  0  0  0  0  0  0  0  0  0  0
    2.3870  -11.9699   23.0230 H   0  0  0  0  0  0  0  0  0  0  0  0
    3.9567  -11.7103   22.6270 H   0  0  0  0  0  0  0  0  0  0  0  0
    3.2681  -13.2562   23.4683 H   0  0  0  0  0  0  0  0  0  0  0  0
    2.1619  -14.8709   19.3877 H   0  0  0  0  0  0  0  0  0  0  0  0
    2.5303  -15.5947   20.5430 H   0  0  0  0  0  0  0  0  0  0  0  0
    0.3871  -17.0737   19.9426 H   0  0  0  0  0  0  0  0  0  0  0  0
   -0.7515  -15.6886   19.6785 H   0  0  0  0  0  0  0  0  0  0  0  0
   -1.6106  -18.3110   20.9399 H   0  0  0  0  0  0  0  0  0  0  0  0
   -6.3997  -17.5516   21.9252 H   0  0  0  0  0  0  0  0  0  0  0  0
   -5.6866  -18.6918   21.3127 H   0  0  0  0  0  0  0  0  0  0  0  0
   -6.2892  -18.2421   26.5911 H   0  0  0  0  0  0  0  0  0  0  0  0
   -4.1116  -21.3319   27.7622 H   0  0  0  0  0  0  0  0  0  0  0  0
   -3.7734  -20.8233   23.9889 H   0  0  0  0  0  0  0  0  0  0  0  0
    9.2238   -9.6104   19.5403 H   0  0  0  0  0  0  0  0  0  0  0  0
   10.6980  -11.1717   18.5786 H   0  0  0  0  0  0  0  0  0  0  0  0
  1  2  1  0
  2  3  2  0
  3  4  1  0
  4  5  1  0
  5  6  2  0
  5  7  1  0
  7  8  1  0
  8  9  1  0
  8 10  1  0
 10 11  1  0
 11 12  1  0
 12 13  1  0
 13 14  2  0
 13 15  1  0
 15 16  1  0
 16 17  2  0
 17 18  1  0
 18 19  2  0
 19 20  1  0
 20 21  2  0
  4 22  2  0
 22 23  1  0
 23  2  1  0
 21 16  1  0
  1 24  1  0
  1 25  1  0
  1 26  1  0
  7 27  1  0
  8 28  1  0
  9 29  1  0
  9 30  1  0
  9 31  1  0
 10 32  1  0
 10 33  1  0
 11 34  1  0
 11 35  1  0
 12 36  1  0
 15 37  1  0
 15 38  1  0
 17 39  1  0
 19 40  1  0
 21 41  1  0
 22 42  1  0
 23 43  1  0
M  END
>  <Energy>  (898) 
1704.2244223564703

>  <compound_id>  (898) 
28787

>  <target_id>  (898) 
1

>  <reference_id>  (898) 
80

>  <inspiration_ids>  (898) 
[80, 54]

>  <energy_score>  (898) 
1654.7245391219353

>  <distance_score>  (898) 
9.24548059288037

>  <path>  (898) 
/opt/xchem-fragalysis-2/maxwin/BulkDock/SCRATCH/511021/C28787-P80/C28787-P80.minimised.mol

>  <scratch_subdir>  (898) 
/opt/xchem-fragalysis-2/maxwin/BulkDock/SCRATCH/511021/C28787-P80

>  <fragmenstein_runtime>  (898) 
28.875359773635864

>  <fragmenstein_outcome>  (898) 
too moved

>  <fragmenstein_mode>  (898) 
expansion

>  <fragmenstein_error>  (898) 


$$$$
C28787-P54
     RDKit          3D

 43 44  0  0  0  0  0  0  0  0999 V2000
    6.3548   -2.9168   21.5597 C   0  0  0  0  0  0  0  0  0  0  0  0
    7.1746   -4.1422   21.4036 C   0  0  0  0  0  0  0  0  0  0  0  0
    6.7210   -5.3532   21.1555 N   0  0  0  0  0  0  0  0  0  0  0  0
    7.7975   -6.2064   21.2892 C   0  0  0  0  0  0  0  0  0  0  0  0
    7.6928   -7.6678   21.0760 C   0  0  0  0  0  0  0  0  0  0  0  0
    8.6410   -8.3553   21.3285 O   0  0  0  0  0  0  0  0  0  0  0  0
    6.3984   -8.0099   20.4992 N   0  0  0  0  0  0  0  0  0  0  0  0
    5.7862   -9.3830   20.1197 C   0  0  0  0  0  0  0  0  0  0  0  0
    5.8784   -9.8566   21.6821 C   0  0  0  0  0  0  0  0  0  0  0  0
    5.0113  -10.0948   18.3614 C   0  0  0  0  0  0  0  0  0  0  0  0
    3.7743  -11.4443   17.8360 C   0  0  0  0  0  0  0  0  0  0  0  0
    2.4401  -12.3734   18.4842 N   0  0  0  0  0  0  0  0  0  0  0  0
    1.5140  -13.7806   17.7838 C   0  0  0  0  0  0  0  0  0  0  0  0
    1.6795  -14.2220   16.6395 O   0  0  0  0  0  0  0  0  0  0  0  0
    0.1513  -14.9424   18.7907 C   0  0  0  0  0  0  0  0  0  0  0  0
   -1.4180  -15.6896   18.5409 C   0  0  0  0  0  0  0  0  0  0  0  0
   -2.5358  -15.4156   17.8306 C   0  0  0  0  0  0  0  0  0  0  0  0
   -3.5892  -16.2582   17.5018 N   0  0  0  0  0  0  0  0  0  0  0  0
   -3.6810  -17.4310   18.0152 C   0  0  0  0  0  0  0  0  0  0  0  0
   -2.7277  -17.7712   18.7906 N   0  0  0  0  0  0  0  0  0  0  0  0
   -1.7321  -16.8545   19.1105 C   0  0  0  0  0  0  0  0  0  0  0  0
    8.9462   -5.4630   21.4935 C   0  0  0  0  0  0  0  0  0  0  0  0
    8.5405   -4.1549   21.5384 N   0  0  0  0  0  0  0  0  0  0  0  0
    6.9702   -2.0355   21.7632 H   0  0  0  0  0  0  0  0  0  0  0  0
    5.7635   -2.7365   20.6573 H   0  0  0  0  0  0  0  0  0  0  0  0
    5.6611   -3.0405   22.3975 H   0  0  0  0  0  0  0  0  0  0  0  0
    5.7973   -7.1759   20.5045 H   0  0  0  0  0  0  0  0  0  0  0  0
    6.6949   -9.9605   19.9599 H   0  0  0  0  0  0  0  0  0  0  0  0
    5.0446  -10.2948   22.1925 H   0  0  0  0  0  0  0  0  0  0  0  0
    6.7876  -10.4454   21.8562 H   0  0  0  0  0  0  0  0  0  0  0  0
    6.0552   -9.0129   22.3707 H   0  0  0  0  0  0  0  0  0  0  0  0
    5.1731   -9.6641   17.3970 H   0  0  0  0  0  0  0  0  0  0  0  0
    5.8214  -10.8378   18.2270 H   0  0  0  0  0  0  0  0  0  0  0  0
    3.6166  -11.4211   16.7642 H   0  0  0  0  0  0  0  0  0  0  0  0
    4.5166  -12.2174   17.7071 H   0  0  0  0  0  0  0  0  0  0  0  0
    2.1842  -12.2607   19.4518 H   0  0  0  0  0  0  0  0  0  0  0  0
   -0.1436  -14.4716   19.7405 H   0  0  0  0  0  0  0  0  0  0  0  0
    0.3899  -15.9348   19.0556 H   0  0  0  0  0  0  0  0  0  0  0  0
   -2.5249  -14.5482   17.2059 H   0  0  0  0  0  0  0  0  0  0  0  0
   -4.5014  -18.0898   17.7923 H   0  0  0  0  0  0  0  0  0  0  0  0
   -1.1081  -17.1234   19.9516 H   0  0  0  0  0  0  0  0  0  0  0  0
    9.9825   -5.7503   21.6054 H   0  0  0  0  0  0  0  0  0  0  0  0
    9.1222   -3.3388   21.6834 H   0  0  0  0  0  0  0  0  0  0  0  0
  1  2  1  0
  2  3  2  0
  3  4  1  0
  4  5  1  0
  5  6  2  0
  5  7  1  0
  7  8  1  0
  8  9  1  0
  8 10  1  0
 10 11  1  0
 11 12  1  0
 12 13  1  0
 13 14  2  0
 13 15  1  0
 15 16  1  0
 16 17  2  0
 17 18  1  0
 18 19  2  0
 19 20  1  0
 20 21  2  0
  4 22  2  0
 22 23  1  0
 23  2  1  0
 21 16  1  0
  1 24  1  0
  1 25  1  0
  1 26  1  0
  7 27  1  0
  8 28  1  0
  9 29  1  0
  9 30  1  0
  9 31  1  0
 10 32  1  0
 10 33  1  0
 11 34  1  0
 11 35  1  0
 12 36  1  0
 15 37  1  0
 15 38  1  0
 17 39  1  0
 19 40  1  0
 21 41  1  0
 22 42  1  0
 23 43  1  0
M  END
>  <Energy>  (899) 
474.90651469045582

>  <compound_id>  (899) 
28787

>  <target_id>  (899) 
1

>  <reference_id>  (899) 
54

>  <inspiration_ids>  (899) 
[80, 54]

>  <energy_score>  (899) 
425.40663145592976

>  <distance_score>  (899) 
12.982396071720318

>  <path>  (899) 
/opt/xchem-fragalysis-2/maxwin/BulkDock/SCRATCH/511021/C28787-P54/C28787-P54.minimised.mol

>  <scratch_subdir>  (899) 
/opt/xchem-fragalysis-2/maxwin/BulkDock/SCRATCH/511021/C28787-P54

>  <fragmenstein_runtime>  (899) 
23.768357276916504

>  <fragmenstein_outcome>  (899) 
too moved

>  <fragmenstein_mode>  (899) 
expansion

>  <fragmenstein_error>  (899) 


$$$$
C50858-P80
     RDKit          3D

 47 48  0  0  0  0  0  0  0  0999 V2000
   -4.3586  -11.9486   19.9083 C   0  0  0  0  0  0  0  0  0  0  0  0
   -5.1031  -11.5763   21.1968 C   0  0  0  0  0  0  0  0  0  0  0  0
   -3.4976  -10.4445   21.3553 C   0  0  0  0  0  0  0  0  0  0  0  0
   -2.8068   -9.3179   20.1784 C   0  0  0  0  0  0  0  0  0  0  0  0
   -1.4654   -9.0071   19.7008 N   0  0  0  0  0  0  0  0  0  0  0  0
   -1.0039   -8.2010   18.4977 C   0  0  0  0  0  0  0  0  0  0  0  0
   -1.6384   -7.6931   17.6067 O   0  0  0  0  0  0  0  0  0  0  0  0
    0.5534   -7.9308   18.5254 C   0  0  0  0  0  0  0  0  0  0  0  0
    1.1375   -6.7315   17.8691 N   0  0  0  0  0  0  0  0  0  0  0  0
    1.7419   -5.6646   18.4980 C   0  0  0  0  0  0  0  0  0  0  0  0
    2.5328   -5.0158   17.6703 N   0  0  0  0  0  0  0  0  0  0  0  0
    2.4118   -5.7328   16.5224 C   0  0  0  0  0  0  0  0  0  0  0  0
    1.6098   -6.7985   16.5946 N   0  0  0  0  0  0  0  0  0  0  0  0
   -6.2842  -12.3402   22.7241 N   0  0  0  0  0  0  0  0  0  0  0  0
   -6.1716  -13.9502   23.7784 C   0  0  0  0  0  0  0  0  0  0  0  0
   -5.1743  -14.6688   23.6086 O   0  0  0  0  0  0  0  0  0  0  0  0
   -7.4335  -14.8152   25.2563 C   0  0  0  0  0  0  0  0  0  0  0  0
   -8.9479  -14.8795   25.8494 C   0  0  0  0  0  0  0  0  0  0  0  0
   -9.6691  -16.3060   26.3732 N   0  0  0  0  0  0  0  0  0  0  0  0
   -8.8424  -17.2130   27.2417 C   0  0  0  0  0  0  0  0  0  0  0  0
   -9.0779  -18.9749   28.3184 C   0  0  0  0  0  0  0  0  0  0  0  0
  -10.3534  -20.2500   29.5169 C   0  0  0  0  0  0  0  0  0  0  0  0
   -9.3309  -20.6863   27.7987 C   0  0  0  0  0  0  0  0  0  0  0  0
   -7.8327  -16.2581   26.4382 N   0  0  0  0  0  0  0  0  0  0  0  0
   -5.1306  -12.3364   19.2635 H   0  0  0  0  0  0  0  0  0  0  0  0
   -3.3714  -12.2908   20.1543 H   0  0  0  0  0  0  0  0  0  0  0  0
   -3.9797  -11.2057   19.2177 H   0  0  0  0  0  0  0  0  0  0  0  0
   -6.0749  -11.6105   20.7203 H   0  0  0  0  0  0  0  0  0  0  0  0
   -2.6253  -11.1005   21.4001 H   0  0  0  0  0  0  0  0  0  0  0  0
   -3.5786   -9.8635   22.2832 H   0  0  0  0  0  0  0  0  0  0  0  0
   -3.2980   -9.4043   19.2310 H   0  0  0  0  0  0  0  0  0  0  0  0
   -3.0228   -8.3495   20.6358 H   0  0  0  0  0  0  0  0  0  0  0  0
   -0.6507   -9.3543   20.2049 H   0  0  0  0  0  0  0  0  0  0  0  0
    0.8566   -7.8832   19.5627 H   0  0  0  0  0  0  0  0  0  0  0  0
    1.1019   -8.7382   18.0522 H   0  0  0  0  0  0  0  0  0  0  0  0
    1.5985   -5.4370   19.5446 H   0  0  0  0  0  0  0  0  0  0  0  0
    2.9289   -5.4835   15.6051 H   0  0  0  0  0  0  0  0  0  0  0  0
   -7.0814  -11.8289   23.0224 H   0  0  0  0  0  0  0  0  0  0  0  0
   -9.8317  -14.2795   25.6938 H   0  0  0  0  0  0  0  0  0  0  0  0
   -9.9966  -16.7783   25.5538 H   0  0  0  0  0  0  0  0  0  0  0  0
   -8.1453  -18.8706   28.7815 H   0  0  0  0  0  0  0  0  0  0  0  0
  -10.2365  -20.3702   30.6132 H   0  0  0  0  0  0  0  0  0  0  0  0
  -10.4999  -21.3343   29.3526 H   0  0  0  0  0  0  0  0  0  0  0  0
  -11.4795  -20.1375   29.4429 H   0  0  0  0  0  0  0  0  0  0  0  0
   -8.2181  -20.9851   27.5417 H   0  0  0  0  0  0  0  0  0  0  0  0
   -9.3783  -21.7187   28.3605 H   0  0  0  0  0  0  0  0  0  0  0  0
  -10.3306  -20.9360   27.3131 H   0  0  0  0  0  0  0  0  0  0  0  0
  1  2  1  0
  2  3  1  0
  3  4  1  0
  4  5  1  0
  5  6  1  0
  6  7  2  0
  6  8  1  0
  8  9  1  0
  9 10  1  0
 10 11  2  0
 11 12  1  0
 12 13  2  0
  2 14  1  0
 14 15  1  0
 15 16  2  0
 15 17  1  0
 17 18  2  0
 18 19  1  0
 19 20  1  0
 20 21  1  0
 21 22  1  0
 21 23  1  0
 20 24  2  0
 13  9  1  0
 24 17  1  0
  1 25  1  0
  1 26  1  0
  1 27  1  0
  2 28  1  0
  3 29  1  0
  3 30  1  0
  4 31  1  0
  4 32  1  0
  5 33  1  0
  8 34  1  0
  8 35  1  0
 10 36  1  0
 12 37  1  0
 14 38  1  0
 18 39  1  0
 19 40  1  0
 21 41  1  0
 22 42  1  0
 22 43  1  0
 22 44  1  0
 23 45  1  0
 23 46  1  0
 23 47  1  0
M  END
>  <Energy>  (900) 
1353.3006610109774

>  <compound_id>  (900) 
50858

>  <target_id>  (900) 
1

>  <reference_id>  (900) 
80

>  <inspiration_ids>  (900) 
[80, 54]

>  <energy_score>  (900) 
1291.7843706322521

>  <distance_score>  (900) 
9.065690157534586

>  <path>  (900) 
/opt/xchem-fragalysis-2/maxwin/BulkDock/SCRATCH/511021/C50858-P80/C50858-P80.minimised.mol

>  <scratch_subdir>  (900) 
/opt/xchem-fragalysis-2/maxwin/BulkDock/SCRATCH/511021/C50858-P80

>  <fragmenstein_runtime>  (900) 
50.18466019630432

>  <fragmenstein_outcome>  (900) 
too moved

>  <fragmenstein_mode>  (900) 
expansion

>  <fragmenstein_error>  (900) 


$$$$
C50858-P54
     RDKit          3D

 47 48  0  0  0  0  0  0  0  0999 V2000
   -1.9454  -16.8785   24.1363 C   0  0  0  0  0  0  0  0  0  0  0  0
   -1.4378  -17.9698   22.3435 C   0  0  0  0  0  0  0  0  0  0  0  0
   -0.8382  -16.9839   20.5429 C   0  0  0  0  0  0  0  0  0  0  0  0
   -0.2383  -15.3344   19.4705 C   0  0  0  0  0  0  0  0  0  0  0  0
    1.1616  -14.1604   18.6204 N   0  0  0  0  0  0  0  0  0  0  0  0
    2.3466  -12.9644   19.3463 C   0  0  0  0  0  0  0  0  0  0  0  0
    2.4913  -12.7871   20.5649 O   0  0  0  0  0  0  0  0  0  0  0  0
    3.2582  -11.8816   17.9268 C   0  0  0  0  0  0  0  0  0  0  0  0
    4.6884  -11.2701   17.1703 N   0  0  0  0  0  0  0  0  0  0  0  0
    5.6625  -10.3798   17.5455 C   0  0  0  0  0  0  0  0  0  0  0  0
    6.4650  -10.0781   16.5463 N   0  0  0  0  0  0  0  0  0  0  0  0
    6.0104  -10.8931   15.5611 C   0  0  0  0  0  0  0  0  0  0  0  0
    4.9686  -11.6614   15.8870 N   0  0  0  0  0  0  0  0  0  0  0  0
   -2.6966  -19.2171   22.9252 N   0  0  0  0  0  0  0  0  0  0  0  0
   -2.7108  -20.6674   22.8749 C   0  0  0  0  0  0  0  0  0  0  0  0
   -1.9444  -21.4407   22.3664 O   0  0  0  0  0  0  0  0  0  0  0  0
   -4.0351  -21.2289   23.8301 C   0  0  0  0  0  0  0  0  0  0  0  0
   -4.7774  -22.3683   23.6902 C   0  0  0  0  0  0  0  0  0  0  0  0
   -5.7575  -22.3599   24.6985 N   0  0  0  0  0  0  0  0  0  0  0  0
   -5.5357  -21.4421   25.8173 C   0  0  0  0  0  0  0  0  0  0  0  0
   -6.6383  -21.0446   27.3683 C   0  0  0  0  0  0  0  0  0  0  0  0
   -8.4213  -21.6423   27.8032 C   0  0  0  0  0  0  0  0  0  0  0  0
   -6.1333  -21.8391   28.7236 C   0  0  0  0  0  0  0  0  0  0  0  0
   -4.6100  -20.6565   25.1721 N   0  0  0  0  0  0  0  0  0  0  0  0
   -1.0597  -16.4642   24.7008 H   0  0  0  0  0  0  0  0  0  0  0  0
   -2.4830  -15.9325   24.0003 H   0  0  0  0  0  0  0  0  0  0  0  0
   -2.4181  -17.5070   24.8656 H   0  0  0  0  0  0  0  0  0  0  0  0
   -0.6576  -18.7536   22.5144 H   0  0  0  0  0  0  0  0  0  0  0  0
   -1.6747  -17.2140   19.8756 H   0  0  0  0  0  0  0  0  0  0  0  0
    0.1260  -17.3787   20.2819 H   0  0  0  0  0  0  0  0  0  0  0  0
   -0.7326  -14.5737   20.0345 H   0  0  0  0  0  0  0  0  0  0  0  0
   -0.7925  -15.6127   18.5895 H   0  0  0  0  0  0  0  0  0  0  0  0
    1.2929  -14.1822   17.6191 H   0  0  0  0  0  0  0  0  0  0  0  0
    4.1971  -12.3343   18.2246 H   0  0  0  0  0  0  0  0  0  0  0  0
    3.0102  -12.3375   16.9552 H   0  0  0  0  0  0  0  0  0  0  0  0
    5.7612   -9.9219   18.5102 H   0  0  0  0  0  0  0  0  0  0  0  0
    6.4502  -10.9415   14.5731 H   0  0  0  0  0  0  0  0  0  0  0  0
   -3.4514  -18.9027   23.5101 H   0  0  0  0  0  0  0  0  0  0  0  0
   -4.8048  -23.1174   22.9131 H   0  0  0  0  0  0  0  0  0  0  0  0
   -6.6403  -22.8033   24.5398 H   0  0  0  0  0  0  0  0  0  0  0  0
   -6.7215  -19.9864   27.3923 H   0  0  0  0  0  0  0  0  0  0  0  0
   -8.9089  -22.2630   27.0372 H   0  0  0  0  0  0  0  0  0  0  0  0
   -9.0942  -20.8435   28.1547 H   0  0  0  0  0  0  0  0  0  0  0  0
   -8.4432  -22.3780   28.6344 H   0  0  0  0  0  0  0  0  0  0  0  0
   -5.0686  -21.9032   28.9584 H   0  0  0  0  0  0  0  0  0  0  0  0
   -6.6519  -21.6285   29.6066 H   0  0  0  0  0  0  0  0  0  0  0  0
   -6.5024  -22.8650   28.8564 H   0  0  0  0  0  0  0  0  0  0  0  0
  1  2  1  0
  2  3  1  0
  3  4  1  0
  4  5  1  0
  5  6  1  0
  6  7  2  0
  6  8  1  0
  8  9  1  0
  9 10  1  0
 10 11  2  0
 11 12  1  0
 12 13  2  0
  2 14  1  0
 14 15  1  0
 15 16  2  0
 15 17  1  0
 17 18  2  0
 18 19  1  0
 19 20  1  0
 20 21  1  0
 21 22  1  0
 21 23  1  0
 20 24  2  0
 13  9  1  0
 24 17  1  0
  1 25  1  0
  1 26  1  0
  1 27  1  0
  2 28  1  0
  3 29  1  0
  3 30  1  0
  4 31  1  0
  4 32  1  0
  5 33  1  0
  8 34  1  0
  8 35  1  0
 10 36  1  0
 12 37  1  0
 14 38  1  0
 18 39  1  0
 19 40  1  0
 21 41  1  0
 22 42  1  0
 22 43  1  0
 22 44  1  0
 23 45  1  0
 23 46  1  0
 23 47  1  0
M  END
>  <Energy>  (901) 
902.51743092471702

>  <compound_id>  (901) 
50858

>  <target_id>  (901) 
1

>  <reference_id>  (901) 
54

>  <inspiration_ids>  (901) 
[80, 54]

>  <energy_score>  (901) 
841.0011405459782

>  <distance_score>  (901) 
8.919398170759102

>  <path>  (901) 
/opt/xchem-fragalysis-2/maxwin/BulkDock/SCRATCH/511021/C50858-P54/C50858-P54.minimised.mol

>  <scratch_subdir>  (901) 
/opt/xchem-fragalysis-2/maxwin/BulkDock/SCRATCH/511021/C50858-P54

>  <fragmenstein_runtime>  (901) 
35.0796914100647

>  <fragmenstein_outcome>  (901) 
too moved

>  <fragmenstein_mode>  (901) 
expansion

>  <fragmenstein_error>  (901) 


$$$$
C50859-P80
     RDKit          3D

 44 45  0  0  0  0  0  0  0  0999 V2000
    8.4156   -9.9716   18.9916 C   0  0  0  0  0  0  0  0  0  0  0  0
    8.6422   -8.6704   19.7757 C   0  0  0  0  0  0  0  0  0  0  0  0
    7.3147   -7.8507   20.2344 N   0  0  0  0  0  0  0  0  0  0  0  0
    6.4131   -7.7496   19.2373 C   0  0  0  0  0  0  0  0  0  0  0  0
    5.3367   -7.8595   20.0275 N   0  0  0  0  0  0  0  0  0  0  0  0
    5.0607   -7.8473   22.0515 C   0  0  0  0  0  0  0  0  0  0  0  0
    3.3656   -8.5981   22.9623 C   0  0  0  0  0  0  0  0  0  0  0  0
    2.5189   -7.9722   23.5998 O   0  0  0  0  0  0  0  0  0  0  0  0
    3.1917  -10.5873   22.7846 N   0  0  0  0  0  0  0  0  0  0  0  0
    1.7177  -11.8783   23.3770 C   0  0  0  0  0  0  0  0  0  0  0  0
    2.5255  -12.9441   24.1250 C   0  0  0  0  0  0  0  0  0  0  0  0
   -0.1308  -13.0870   22.9083 C   0  0  0  0  0  0  0  0  0  0  0  0
   -1.3856  -14.7160   23.1084 C   0  0  0  0  0  0  0  0  0  0  0  0
   -3.2635  -15.4150   23.0509 N   0  0  0  0  0  0  0  0  0  0  0  0
   -4.1496  -16.4291   21.7248 C   0  0  0  0  0  0  0  0  0  0  0  0
   -3.5677  -16.6304   20.6868 O   0  0  0  0  0  0  0  0  0  0  0  0
   -5.8350  -17.4587   21.7262 C   0  0  0  0  0  0  0  0  0  0  0  0
   -7.3617  -17.3895   21.5329 N   0  0  0  0  0  0  0  0  0  0  0  0
   -8.0464  -17.8867   20.4501 C   0  0  0  0  0  0  0  0  0  0  0  0
   -9.2797  -18.1946   20.7832 N   0  0  0  0  0  0  0  0  0  0  0  0
   -9.3161  -17.9426   22.1161 C   0  0  0  0  0  0  0  0  0  0  0  0
   -8.1853  -17.4778   22.6417 N   0  0  0  0  0  0  0  0  0  0  0  0
    6.6666   -7.1723   21.8387 C   0  0  0  0  0  0  0  0  0  0  0  0
    9.2177  -10.6843   19.2136 H   0  0  0  0  0  0  0  0  0  0  0  0
    7.4680  -10.4168   19.2777 H   0  0  0  0  0  0  0  0  0  0  0  0
    8.4224   -9.9525   17.9125 H   0  0  0  0  0  0  0  0  0  0  0  0
    9.4038   -7.9535   19.6248 H   0  0  0  0  0  0  0  0  0  0  0  0
    9.5549   -8.8133   20.4305 H   0  0  0  0  0  0  0  0  0  0  0  0
    6.3828   -7.6561   18.1730 H   0  0  0  0  0  0  0  0  0  0  0  0
    4.0235  -10.9563   22.3000 H   0  0  0  0  0  0  0  0  0  0  0  0
    2.4594  -12.2077   22.6439 H   0  0  0  0  0  0  0  0  0  0  0  0
    3.5484  -12.7261   24.1943 H   0  0  0  0  0  0  0  0  0  0  0  0
    1.9941  -13.0896   25.0578 H   0  0  0  0  0  0  0  0  0  0  0  0
    2.7333  -13.8577   23.5479 H   0  0  0  0  0  0  0  0  0  0  0  0
   -0.5076  -12.1584   22.5563 H   0  0  0  0  0  0  0  0  0  0  0  0
    0.2529  -13.8913   23.6529 H   0  0  0  0  0  0  0  0  0  0  0  0
   -0.7382  -15.2482   22.3622 H   0  0  0  0  0  0  0  0  0  0  0  0
   -1.6807  -14.6647   21.9612 H   0  0  0  0  0  0  0  0  0  0  0  0
   -3.8314  -15.4057   23.8740 H   0  0  0  0  0  0  0  0  0  0  0  0
   -5.6749  -18.1064   20.8417 H   0  0  0  0  0  0  0  0  0  0  0  0
   -5.8588  -18.0648   22.6327 H   0  0  0  0  0  0  0  0  0  0  0  0
   -7.5897  -18.0281   19.4802 H   0  0  0  0  0  0  0  0  0  0  0  0
  -10.1970  -18.1047   22.7195 H   0  0  0  0  0  0  0  0  0  0  0  0
    7.2517   -6.9383   22.7276 H   0  0  0  0  0  0  0  0  0  0  0  0
  1  2  1  0
  2  3  1  0
  3  4  1  0
  4  5  2  0
  5  6  1  0
  6  7  1  0
  7  8  2  0
  7  9  1  0
  9 10  1  0
 10 11  1  0
 10 12  1  0
 12 13  1  0
 13 14  1  0
 14 15  1  0
 15 16  2  0
 15 17  1  0
 17 18  1  0
 18 19  1  0
 19 20  2  0
 20 21  1  0
 21 22  2  0
  6 23  2  0
 23  3  1  0
 22 18  1  0
  1 24  1  0
  1 25  1  0
  1 26  1  0
  2 27  1  0
  2 28  1  0
  4 29  1  0
  9 30  1  0
 10 31  1  0
 11 32  1  0
 11 33  1  0
 11 34  1  0
 12 35  1  0
 12 36  1  0
 13 37  1  0
 13 38  1  0
 14 39  1  0
 17 40  1  0
 17 41  1  0
 19 42  1  0
 21 43  1  0
 23 44  1  0
M  END
>  <Energy>  (902) 
1471.2808715009819

>  <compound_id>  (902) 
50859

>  <target_id>  (902) 
1

>  <reference_id>  (902) 
80

>  <inspiration_ids>  (902) 
[80, 54]

>  <energy_score>  (902) 
1419.266840727093

>  <distance_score>  (902) 
10.44608920463204

>  <path>  (902) 
/opt/xchem-fragalysis-2/maxwin/BulkDock/SCRATCH/511021/C50859-P80/C50859-P80.minimised.mol

>  <scratch_subdir>  (902) 
/opt/xchem-fragalysis-2/maxwin/BulkDock/SCRATCH/511021/C50859-P80

>  <fragmenstein_runtime>  (902) 
38.464760303497314

>  <fragmenstein_outcome>  (902) 
too moved

>  <fragmenstein_mode>  (902) 
expansion

>  <fragmenstein_error>  (902) 


$$$$
C50859-P54
     RDKit          3D

 44 45  0  0  0  0  0  0  0  0999 V2000
    3.9114  -10.7550   12.4567 C   0  0  0  0  0  0  0  0  0  0  0  0
    4.5699  -12.0047   13.0142 C   0  0  0  0  0  0  0  0  0  0  0  0
    4.0871  -12.3343   14.3370 N   0  0  0  0  0  0  0  0  0  0  0  0
    4.5800  -11.8452   15.5062 C   0  0  0  0  0  0  0  0  0  0  0  0
    3.8612  -12.2630   16.5233 N   0  0  0  0  0  0  0  0  0  0  0  0
    2.8848  -13.1784   16.0073 C   0  0  0  0  0  0  0  0  0  0  0  0
    1.6846  -14.1018   16.8045 C   0  0  0  0  0  0  0  0  0  0  0  0
    1.1382  -14.8298   16.0147 O   0  0  0  0  0  0  0  0  0  0  0  0
    1.3406  -13.9035   18.5475 N   0  0  0  0  0  0  0  0  0  0  0  0
   -0.1048  -14.6819   19.7374 C   0  0  0  0  0  0  0  0  0  0  0  0
    0.8598  -13.2583   21.0608 C   0  0  0  0  0  0  0  0  0  0  0  0
   -0.7783  -16.6351   20.2875 C   0  0  0  0  0  0  0  0  0  0  0  0
   -1.5102  -17.8379   21.9197 C   0  0  0  0  0  0  0  0  0  0  0  0
   -2.4044  -19.1687   23.0574 N   0  0  0  0  0  0  0  0  0  0  0  0
   -4.0561  -19.1582   23.9128 C   0  0  0  0  0  0  0  0  0  0  0  0
   -4.8332  -18.2674   23.7570 O   0  0  0  0  0  0  0  0  0  0  0  0
   -4.8208  -20.4283   24.9052 C   0  0  0  0  0  0  0  0  0  0  0  0
   -5.8045  -21.2697   24.1074 N   0  0  0  0  0  0  0  0  0  0  0  0
   -5.6306  -22.5942   23.8204 C   0  0  0  0  0  0  0  0  0  0  0  0
   -6.2621  -22.9231   22.7253 N   0  0  0  0  0  0  0  0  0  0  0  0
   -6.8770  -21.7800   22.3618 C   0  0  0  0  0  0  0  0  0  0  0  0
   -6.5297  -20.7274   23.0944 N   0  0  0  0  0  0  0  0  0  0  0  0
    3.0577  -13.1925   14.6253 C   0  0  0  0  0  0  0  0  0  0  0  0
    4.2906  -10.5413   11.4528 H   0  0  0  0  0  0  0  0  0  0  0  0
    4.1145   -9.8850   13.0903 H   0  0  0  0  0  0  0  0  0  0  0  0
    2.8247  -10.8757   12.3942 H   0  0  0  0  0  0  0  0  0  0  0  0
    4.3767  -12.8637   12.3622 H   0  0  0  0  0  0  0  0  0  0  0  0
    5.6556  -11.8724   13.0781 H   0  0  0  0  0  0  0  0  0  0  0  0
    5.4076  -11.1538   15.5586 H   0  0  0  0  0  0  0  0  0  0  0  0
    1.9186  -13.1473   18.9307 H   0  0  0  0  0  0  0  0  0  0  0  0
   -0.0531  -15.2183   18.7719 H   0  0  0  0  0  0  0  0  0  0  0  0
    0.1691  -12.6641   21.7290 H   0  0  0  0  0  0  0  0  0  0  0  0
    1.7860  -12.5787   20.8590 H   0  0  0  0  0  0  0  0  0  0  0  0
    1.7413  -13.7193   21.4615 H   0  0  0  0  0  0  0  0  0  0  0  0
    0.1042  -17.1517   19.9895 H   0  0  0  0  0  0  0  0  0  0  0  0
   -1.5439  -16.7932   19.5042 H   0  0  0  0  0  0  0  0  0  0  0  0
   -1.8452  -18.6775   21.3607 H   0  0  0  0  0  0  0  0  0  0  0  0
   -0.5007  -17.9347   22.3886 H   0  0  0  0  0  0  0  0  0  0  0  0
   -1.8751  -19.9454   23.3802 H   0  0  0  0  0  0  0  0  0  0  0  0
   -5.4836  -19.7939   25.5159 H   0  0  0  0  0  0  0  0  0  0  0  0
   -4.4720  -21.0603   25.7181 H   0  0  0  0  0  0  0  0  0  0  0  0
   -4.9121  -23.2055   24.3250 H   0  0  0  0  0  0  0  0  0  0  0  0
   -7.5465  -21.6971   21.5148 H   0  0  0  0  0  0  0  0  0  0  0  0
    2.5158  -13.7292   13.8602 H   0  0  0  0  0  0  0  0  0  0  0  0
  1  2  1  0
  2  3  1  0
  3  4  1  0
  4  5  2  0
  5  6  1  0
  6  7  1  0
  7  8  2  0
  7  9  1  0
  9 10  1  0
 10 11  1  0
 10 12  1  0
 12 13  1  0
 13 14  1  0
 14 15  1  0
 15 16  2  0
 15 17  1  0
 17 18  1  0
 18 19  1  0
 19 20  2  0
 20 21  1  0
 21 22  2  0
  6 23  2  0
 23  3  1  0
 22 18  1  0
  1 24  1  0
  1 25  1  0
  1 26  1  0
  2 27  1  0
  2 28  1  0
  4 29  1  0
  9 30  1  0
 10 31  1  0
 11 32  1  0
 11 33  1  0
 11 34  1  0
 12 35  1  0
 12 36  1  0
 13 37  1  0
 13 38  1  0
 14 39  1  0
 17 40  1  0
 17 41  1  0
 19 42  1  0
 21 43  1  0
 23 44  1  0
M  END
>  <Energy>  (903) 
881.75484880197814

>  <compound_id>  (903) 
50859

>  <target_id>  (903) 
1

>  <reference_id>  (903) 
54

>  <inspiration_ids>  (903) 
[80, 54]

>  <energy_score>  (903) 
829.7408180280695

>  <distance_score>  (903) 
11.292430258141222

>  <path>  (903) 
/opt/xchem-fragalysis-2/maxwin/BulkDock/SCRATCH/511021/C50859-P54/C50859-P54.minimised.mol

>  <scratch_subdir>  (903) 
/opt/xchem-fragalysis-2/maxwin/BulkDock/SCRATCH/511021/C50859-P54

>  <fragmenstein_runtime>  (903) 
27.82050061225891

>  <fragmenstein_outcome>  (903) 
too moved

>  <fragmenstein_mode>  (903) 
expansion

>  <fragmenstein_error>  (903) 


$$$$
C50860-P80
     RDKit          3D

 41 42  0  0  0  0  0  0  0  0999 V2000
   -3.8722   -6.0308   23.8804 C   0  0  0  0  0  0  0  0  0  0  0  0
   -3.0688   -7.3047   23.6027 C   0  0  0  0  0  0  0  0  0  0  0  0
   -4.0074   -8.4788   23.1753 C   0  0  0  0  0  0  0  0  0  0  0  0
   -4.8267   -9.0482   24.3799 C   0  0  0  0  0  0  0  0  0  0  0  0
   -5.6743  -10.2184   24.1321 N   0  0  0  0  0  0  0  0  0  0  0  0
   -6.7215  -10.8376   24.9533 C   0  0  0  0  0  0  0  0  0  0  0  0
   -7.2000  -10.4929   25.9984 O   0  0  0  0  0  0  0  0  0  0  0  0
   -7.3324  -12.0810   24.2476 C   0  0  0  0  0  0  0  0  0  0  0  0
   -7.9129  -13.1705   25.0672 N   0  0  0  0  0  0  0  0  0  0  0  0
   -8.3177  -13.2192   26.3694 C   0  0  0  0  0  0  0  0  0  0  0  0
   -8.7722  -14.4192   26.6662 N   0  0  0  0  0  0  0  0  0  0  0  0
   -8.6404  -15.0987   25.4981 C   0  0  0  0  0  0  0  0  0  0  0  0
   -8.1132  -14.3950   24.4886 N   0  0  0  0  0  0  0  0  0  0  0  0
   -1.9468   -6.9526   22.7089 N   0  0  0  0  0  0  0  0  0  0  0  0
   -0.6162   -6.4674   23.0051 C   0  0  0  0  0  0  0  0  0  0  0  0
   -0.0606   -6.3043   24.0538 O   0  0  0  0  0  0  0  0  0  0  0  0
    0.1313   -6.0091   21.7796 C   0  0  0  0  0  0  0  0  0  0  0  0
    1.3715   -5.3714   21.7771 C   0  0  0  0  0  0  0  0  0  0  0  0
    1.6673   -5.1036   20.4707 N   0  0  0  0  0  0  0  0  0  0  0  0
    2.8571   -4.4655   19.9698 C   0  0  0  0  0  0  0  0  0  0  0  0
    0.6324   -5.5702   19.7177 C   0  0  0  0  0  0  0  0  0  0  0  0
   -0.3179   -6.0963   20.4690 N   0  0  0  0  0  0  0  0  0  0  0  0
   -4.6356   -6.1904   24.6468 H   0  0  0  0  0  0  0  0  0  0  0  0
   -3.2172   -5.2256   24.2322 H   0  0  0  0  0  0  0  0  0  0  0  0
   -4.3676   -5.6758   22.9700 H   0  0  0  0  0  0  0  0  0  0  0  0
   -2.5856   -7.5912   24.5453 H   0  0  0  0  0  0  0  0  0  0  0  0
   -3.4076   -9.2750   22.7306 H   0  0  0  0  0  0  0  0  0  0  0  0
   -4.6949   -8.1463   22.3882 H   0  0  0  0  0  0  0  0  0  0  0  0
   -5.4819   -8.2787   24.7997 H   0  0  0  0  0  0  0  0  0  0  0  0
   -4.1362   -9.3471   25.1768 H   0  0  0  0  0  0  0  0  0  0  0  0
   -5.4579  -10.8353   23.3428 H   0  0  0  0  0  0  0  0  0  0  0  0
   -8.1490  -11.7338   23.6046 H   0  0  0  0  0  0  0  0  0  0  0  0
   -6.5783  -12.5663   23.6242 H   0  0  0  0  0  0  0  0  0  0  0  0
   -8.2657  -12.3791   27.0488 H   0  0  0  0  0  0  0  0  0  0  0  0
   -8.9345  -16.1333   25.3771 H   0  0  0  0  0  0  0  0  0  0  0  0
   -2.1105   -6.8803   21.7047 H   0  0  0  0  0  0  0  0  0  0  0  0
    2.0283   -5.1063   22.5940 H   0  0  0  0  0  0  0  0  0  0  0  0
    2.6362   -3.4073   19.8109 H   0  0  0  0  0  0  0  0  0  0  0  0
    3.1462   -4.9402   19.0285 H   0  0  0  0  0  0  0  0  0  0  0  0
    3.6626   -4.5787   20.6998 H   0  0  0  0  0  0  0  0  0  0  0  0
    0.6106   -5.5039   18.6373 H   0  0  0  0  0  0  0  0  0  0  0  0
  1  2  1  0
  2  3  1  0
  3  4  1  0
  4  5  1  0
  5  6  1  0
  6  7  2  0
  6  8  1  0
  8  9  1  0
  9 10  1  0
 10 11  2  0
 11 12  1  0
 12 13  2  0
  2 14  1  0
 14 15  1  0
 15 16  2  0
 15 17  1  0
 17 18  2  0
 18 19  1  0
 19 20  1  0
 19 21  1  0
 21 22  2  0
 13  9  1  0
 22 17  1  0
  1 23  1  0
  1 24  1  0
  1 25  1  0
  2 26  1  0
  3 27  1  0
  3 28  1  0
  4 29  1  0
  4 30  1  0
  5 31  1  0
  8 32  1  0
  8 33  1  0
 10 34  1  0
 12 35  1  0
 14 36  1  0
 18 37  1  0
 20 38  1  0
 20 39  1  0
 20 40  1  0
 21 41  1  0
M  END
>  <Energy>  (904) 
35.22815149166496

>  <compound_id>  (904) 
50860

>  <target_id>  (904) 
1

>  <reference_id>  (904) 
80

>  <inspiration_ids>  (904) 
[80, 54]

>  <energy_score>  (904) 
-16.492466313625187

>  <distance_score>  (904) 
12.396620332400994

>  <path>  (904) 
/opt/xchem-fragalysis-2/maxwin/BulkDock/SCRATCH/511021/C50860-P80/C50860-P80.minimised.mol

>  <scratch_subdir>  (904) 
/opt/xchem-fragalysis-2/maxwin/BulkDock/SCRATCH/511021/C50860-P80

>  <fragmenstein_runtime>  (904) 
38.182456970214844

>  <fragmenstein_outcome>  (904) 
too moved

>  <fragmenstein_mode>  (904) 
expansion

>  <fragmenstein_error>  (904) 


$$$$
C50860-P54
     RDKit          3D

 41 42  0  0  0  0  0  0  0  0999 V2000
    1.7553  -14.0514   16.3730 C   0  0  0  0  0  0  0  0  0  0  0  0
    1.4076  -13.7797   17.9017 C   0  0  0  0  0  0  0  0  0  0  0  0
   -0.0617  -15.1512   18.5341 C   0  0  0  0  0  0  0  0  0  0  0  0
   -1.9709  -15.3521   18.2300 C   0  0  0  0  0  0  0  0  0  0  0  0
   -3.0648  -16.4003   18.4358 N   0  0  0  0  0  0  0  0  0  0  0  0
   -3.2666  -17.7201   17.8222 C   0  0  0  0  0  0  0  0  0  0  0  0
   -2.5761  -18.3409   17.0651 O   0  0  0  0  0  0  0  0  0  0  0  0
   -4.6707  -18.3521   18.1411 C   0  0  0  0  0  0  0  0  0  0  0  0
   -4.8810  -19.5988   18.8924 N   0  0  0  0  0  0  0  0  0  0  0  0
   -6.1015  -20.0413   19.3597 C   0  0  0  0  0  0  0  0  0  0  0  0
   -5.9553  -21.1515   20.0453 N   0  0  0  0  0  0  0  0  0  0  0  0
   -4.6126  -21.3724   19.9553 C   0  0  0  0  0  0  0  0  0  0  0  0
   -3.9210  -20.4775   19.2350 N   0  0  0  0  0  0  0  0  0  0  0  0
    2.5699  -12.2265   18.1160 N   0  0  0  0  0  0  0  0  0  0  0  0
    4.0718  -11.8392   17.3777 C   0  0  0  0  0  0  0  0  0  0  0  0
    4.6385  -12.5710   16.6665 O   0  0  0  0  0  0  0  0  0  0  0  0
    4.8815  -10.4714   17.4729 C   0  0  0  0  0  0  0  0  0  0  0  0
    6.1367  -10.2010   18.0873 C   0  0  0  0  0  0  0  0  0  0  0  0
    7.0700   -9.7026   17.1852 N   0  0  0  0  0  0  0  0  0  0  0  0
    8.4630   -9.4493   17.4471 C   0  0  0  0  0  0  0  0  0  0  0  0
    6.3709   -9.2936   16.1063 C   0  0  0  0  0  0  0  0  0  0  0  0
    5.1732   -9.8569   16.1585 N   0  0  0  0  0  0  0  0  0  0  0  0
    1.8018  -15.0646   16.1137 H   0  0  0  0  0  0  0  0  0  0  0  0
    2.6791  -13.6091   16.0246 H   0  0  0  0  0  0  0  0  0  0  0  0
    0.9578  -13.6733   15.7396 H   0  0  0  0  0  0  0  0  0  0  0  0
    1.8376  -14.0018   18.7610 H   0  0  0  0  0  0  0  0  0  0  0  0
   -0.2142  -15.0475   19.5971 H   0  0  0  0  0  0  0  0  0  0  0  0
    0.0582  -16.1981   18.3226 H   0  0  0  0  0  0  0  0  0  0  0  0
   -2.4859  -14.5407   18.7532 H   0  0  0  0  0  0  0  0  0  0  0  0
   -2.2052  -14.9593   17.2563 H   0  0  0  0  0  0  0  0  0  0  0  0
   -3.8863  -16.1501   18.9563 H   0  0  0  0  0  0  0  0  0  0  0  0
   -5.1024  -18.5710   17.1528 H   0  0  0  0  0  0  0  0  0  0  0  0
   -5.3444  -17.6008   18.5664 H   0  0  0  0  0  0  0  0  0  0  0  0
   -7.0276  -19.5147   19.1824 H   0  0  0  0  0  0  0  0  0  0  0  0
   -4.1198  -22.2168   20.4181 H   0  0  0  0  0  0  0  0  0  0  0  0
    2.3160  -11.4829   18.7480 H   0  0  0  0  0  0  0  0  0  0  0  0
    6.3994  -10.0301   19.1147 H   0  0  0  0  0  0  0  0  0  0  0  0
    9.0099  -10.3828   17.2946 H   0  0  0  0  0  0  0  0  0  0  0  0
    8.8299   -8.6817   16.7611 H   0  0  0  0  0  0  0  0  0  0  0  0
    8.5776   -9.1071   18.4786 H   0  0  0  0  0  0  0  0  0  0  0  0
    6.7622   -8.7213   15.2797 H   0  0  0  0  0  0  0  0  0  0  0  0
  1  2  1  0
  2  3  1  0
  3  4  1  0
  4  5  1  0
  5  6  1  0
  6  7  2  0
  6  8  1  0
  8  9  1  0
  9 10  1  0
 10 11  2  0
 11 12  1  0
 12 13  2  0
  2 14  1  0
 14 15  1  0
 15 16  2  0
 15 17  1  0
 17 18  2  0
 18 19  1  0
 19 20  1  0
 19 21  1  0
 21 22  2  0
 13  9  1  0
 22 17  1  0
  1 23  1  0
  1 24  1  0
  1 25  1  0
  2 26  1  0
  3 27  1  0
  3 28  1  0
  4 29  1  0
  4 30  1  0
  5 31  1  0
  8 32  1  0
  8 33  1  0
 10 34  1  0
 12 35  1  0
 14 36  1  0
 18 37  1  0
 20 38  1  0
 20 39  1  0
 20 40  1  0
 21 41  1  0
M  END
>  <Energy>  (905) 
449.44368784646355

>  <compound_id>  (905) 
50860

>  <target_id>  (905) 
1

>  <reference_id>  (905) 
54

>  <inspiration_ids>  (905) 
[80, 54]

>  <energy_score>  (905) 
397.7230700411774

>  <distance_score>  (905) 
11.737634098767591

>  <path>  (905) 
/opt/xchem-fragalysis-2/maxwin/BulkDock/SCRATCH/511021/C50860-P54/C50860-P54.minimised.mol

>  <scratch_subdir>  (905) 
/opt/xchem-fragalysis-2/maxwin/BulkDock/SCRATCH/511021/C50860-P54

>  <fragmenstein_runtime>  (905) 
26.268270254135132

>  <fragmenstein_outcome>  (905) 
too moved

>  <fragmenstein_mode>  (905) 
expansion

>  <fragmenstein_error>  (905) 


$$$$
C50866-P80
     RDKit          3D

 44 45  0  0  0  0  0  0  0  0999 V2000
    5.5354  -17.4152   26.0994 C   0  0  0  0  0  0  0  0  0  0  0  0
    5.7234  -16.1013   26.7382 N   0  0  0  0  0  0  0  0  0  0  0  0
    5.1516  -16.9145   28.0281 C   0  0  0  0  0  0  0  0  0  0  0  0
    3.6784  -17.6541   28.0831 C   0  0  0  0  0  0  0  0  0  0  0  0
    3.6442  -18.8474   27.2869 O   0  0  0  0  0  0  0  0  0  0  0  0
    3.2492  -18.1089   29.5346 C   0  0  0  0  0  0  0  0  0  0  0  0
    1.7185  -18.3029   29.7680 N   0  0  0  0  0  0  0  0  0  0  0  0
    1.7988  -16.8613   30.0765 C   0  0  0  0  0  0  0  0  0  0  0  0
    0.6524  -18.5511   28.8381 C   0  0  0  0  0  0  0  0  0  0  0  0
    0.6569  -18.5837   27.6337 O   0  0  0  0  0  0  0  0  0  0  0  0
   -0.7046  -18.6910   29.5038 C   0  0  0  0  0  0  0  0  0  0  0  0
   -1.8536  -18.4012   28.7656 C   0  0  0  0  0  0  0  0  0  0  0  0
   -3.0646  -18.1920   29.3392 N   0  0  0  0  0  0  0  0  0  0  0  0
   -3.1022  -18.3208   30.6800 C   0  0  0  0  0  0  0  0  0  0  0  0
   -1.9703  -18.6362   31.4103 C   0  0  0  0  0  0  0  0  0  0  0  0
   -0.7490  -18.8241   30.8529 N   0  0  0  0  0  0  0  0  0  0  0  0
    6.9420  -15.3836   27.0895 C   0  0  0  0  0  0  0  0  0  0  0  0
    8.0993  -15.7261   27.0270 O   0  0  0  0  0  0  0  0  0  0  0  0
    6.6856  -13.9046   27.5107 C   0  0  0  0  0  0  0  0  0  0  0  0
    7.4407  -12.8482   26.6442 C   0  0  0  0  0  0  0  0  0  0  0  0
    7.2634  -11.4794   26.5002 C   0  0  0  0  0  0  0  0  0  0  0  0
    8.0771  -10.9395   25.5313 N   0  0  0  0  0  0  0  0  0  0  0  0
    8.8439  -11.9345   25.1532 C   0  0  0  0  0  0  0  0  0  0  0  0
    8.5414  -13.0886   25.8349 N   0  0  0  0  0  0  0  0  0  0  0  0
    6.1049  -17.3077   25.1629 H   0  0  0  0  0  0  0  0  0  0  0  0
    6.0368  -18.2872   26.5427 H   0  0  0  0  0  0  0  0  0  0  0  0
    4.5180  -17.5460   25.7271 H   0  0  0  0  0  0  0  0  0  0  0  0
    5.0827  -16.1136   28.7794 H   0  0  0  0  0  0  0  0  0  0  0  0
    5.9402  -17.5799   28.4178 H   0  0  0  0  0  0  0  0  0  0  0  0
    2.9673  -16.9620   27.6377 H   0  0  0  0  0  0  0  0  0  0  0  0
    2.6983  -19.0975   27.2009 H   0  0  0  0  0  0  0  0  0  0  0  0
    3.5972  -19.1495   29.6292 H   0  0  0  0  0  0  0  0  0  0  0  0
    3.8120  -17.6060   30.3386 H   0  0  0  0  0  0  0  0  0  0  0  0
    2.3235  -16.6333   31.0160 H   0  0  0  0  0  0  0  0  0  0  0  0
    2.0727  -16.2383   29.2271 H   0  0  0  0  0  0  0  0  0  0  0  0
    0.7721  -16.5336   30.2985 H   0  0  0  0  0  0  0  0  0  0  0  0
   -1.8307  -18.2501   27.6922 H   0  0  0  0  0  0  0  0  0  0  0  0
   -4.0673  -18.1823   31.1545 H   0  0  0  0  0  0  0  0  0  0  0  0
   -2.0108  -18.7629   32.4853 H   0  0  0  0  0  0  0  0  0  0  0  0
    7.0042  -13.7938   28.5533 H   0  0  0  0  0  0  0  0  0  0  0  0
    5.6137  -13.6959   27.4610 H   0  0  0  0  0  0  0  0  0  0  0  0
    6.5628  -10.8589   27.0418 H   0  0  0  0  0  0  0  0  0  0  0  0
    9.6305  -11.8954   24.4113 H   0  0  0  0  0  0  0  0  0  0  0  0
    8.9831  -13.9938   25.7037 H   0  0  0  0  0  0  0  0  0  0  0  0
  1  2  1  0
  2  3  1  0
  3  4  1  0
  4  5  1  0
  4  6  1  0
  6  7  1  0
  7  8  1  0
  7  9  1  0
  9 10  2  0
  9 11  1  0
 11 12  2  0
 12 13  1  0
 13 14  2  0
 14 15  1  0
 15 16  2  0
  2 17  1  0
 17 18  2  0
 17 19  1  0
 19 20  1  0
 20 21  2  0
 21 22  1  0
 22 23  2  0
 23 24  1  0
 16 11  1  0
 24 20  1  0
  1 25  1  0
  1 26  1  0
  1 27  1  0
  3 28  1  0
  3 29  1  0
  4 30  1  0
  5 31  1  0
  6 32  1  0
  6 33  1  0
  8 34  1  0
  8 35  1  0
  8 36  1  0
 12 37  1  0
 14 38  1  0
 15 39  1  0
 19 40  1  0
 19 41  1  0
 21 42  1  0
 23 43  1  0
 24 44  1  0
M  END
>  <Energy>  (906) 
291.72035783651143

>  <compound_id>  (906) 
50866

>  <target_id>  (906) 
1

>  <reference_id>  (906) 
80

>  <inspiration_ids>  (906) 
[80, 54]

>  <energy_score>  (906) 
104.5064755477481

>  <distance_score>  (906) 
13.473989539869951

>  <path>  (906) 
/opt/xchem-fragalysis-2/maxwin/BulkDock/SCRATCH/511021/C50866-P80/C50866-P80.minimised.mol

>  <scratch_subdir>  (906) 
/opt/xchem-fragalysis-2/maxwin/BulkDock/SCRATCH/511021/C50866-P80

>  <fragmenstein_runtime>  (906) 
38.84368896484375

>  <fragmenstein_outcome>  (906) 
too moved

>  <fragmenstein_mode>  (906) 
expansion

>  <fragmenstein_error>  (906) 


$$$$
C50866-P54
     RDKit          3D

 44 45  0  0  0  0  0  0  0  0999 V2000
    4.8202  -21.1674   18.6699 C   0  0  0  0  0  0  0  0  0  0  0  0
    5.3044  -19.8207   18.9768 N   0  0  0  0  0  0  0  0  0  0  0  0
    3.8521  -19.6993   19.6301 C   0  0  0  0  0  0  0  0  0  0  0  0
    3.1272  -20.6421   20.7709 C   0  0  0  0  0  0  0  0  0  0  0  0
    4.0547  -21.0129   21.7949 O   0  0  0  0  0  0  0  0  0  0  0  0
    2.3428  -21.9233   20.2514 C   0  0  0  0  0  0  0  0  0  0  0  0
    1.0280  -22.1983   21.0619 N   0  0  0  0  0  0  0  0  0  0  0  0
    0.9881  -23.4102   20.1666 C   0  0  0  0  0  0  0  0  0  0  0  0
    0.8333  -22.5876   22.4273 C   0  0  0  0  0  0  0  0  0  0  0  0
    1.6337  -22.8898   23.2759 O   0  0  0  0  0  0  0  0  0  0  0  0
   -0.6536  -22.6503   22.8351 C   0  0  0  0  0  0  0  0  0  0  0  0
   -1.0156  -23.0846   24.1085 C   0  0  0  0  0  0  0  0  0  0  0  0
   -2.3090  -23.1801   24.5352 N   0  0  0  0  0  0  0  0  0  0  0  0
   -3.2499  -22.8184   23.6310 C   0  0  0  0  0  0  0  0  0  0  0  0
   -2.9080  -22.3830   22.3655 C   0  0  0  0  0  0  0  0  0  0  0  0
   -1.6168  -22.3002   21.9383 N   0  0  0  0  0  0  0  0  0  0  0  0
    5.5630  -18.6768   18.0970 C   0  0  0  0  0  0  0  0  0  0  0  0
    5.3549  -18.5348   16.9163 O   0  0  0  0  0  0  0  0  0  0  0  0
    6.3161  -17.5495   18.8588 C   0  0  0  0  0  0  0  0  0  0  0  0
    7.0491  -16.4975   17.9978 C   0  0  0  0  0  0  0  0  0  0  0  0
    8.2947  -15.8937   18.1281 C   0  0  0  0  0  0  0  0  0  0  0  0
    8.4778  -14.8767   17.2148 N   0  0  0  0  0  0  0  0  0  0  0  0
    7.3929  -14.8886   16.4777 C   0  0  0  0  0  0  0  0  0  0  0  0
    6.5061  -15.8452   16.9058 N   0  0  0  0  0  0  0  0  0  0  0  0
    3.9327  -21.2340   18.0256 H   0  0  0  0  0  0  0  0  0  0  0  0
    5.6003  -21.5606   17.9998 H   0  0  0  0  0  0  0  0  0  0  0  0
    4.8792  -21.8494   19.5213 H   0  0  0  0  0  0  0  0  0  0  0  0
    3.1240  -19.4629   18.8352 H   0  0  0  0  0  0  0  0  0  0  0  0
    3.9639  -18.7418   20.1617 H   0  0  0  0  0  0  0  0  0  0  0  0
    2.3961  -19.9703   21.2106 H   0  0  0  0  0  0  0  0  0  0  0  0
    3.5744  -21.6091   22.4032 H   0  0  0  0  0  0  0  0  0  0  0  0
    3.0639  -22.7472   20.3561 H   0  0  0  0  0  0  0  0  0  0  0  0
    2.0749  -21.6841   19.2132 H   0  0  0  0  0  0  0  0  0  0  0  0
    0.8862  -23.1999   19.0925 H   0  0  0  0  0  0  0  0  0  0  0  0
    1.7423  -24.1733   20.4116 H   0  0  0  0  0  0  0  0  0  0  0  0
    0.0431  -23.9201   20.4061 H   0  0  0  0  0  0  0  0  0  0  0  0
   -0.2660  -23.3828   24.8341 H   0  0  0  0  0  0  0  0  0  0  0  0
   -4.2840  -22.8724   23.9519 H   0  0  0  0  0  0  0  0  0  0  0  0
   -3.6629  -22.0772   21.6477 H   0  0  0  0  0  0  0  0  0  0  0  0
    7.0566  -18.0201   19.5169 H   0  0  0  0  0  0  0  0  0  0  0  0
    5.5834  -17.0421   19.4841 H   0  0  0  0  0  0  0  0  0  0  0  0
    9.0522  -16.1094   18.8710 H   0  0  0  0  0  0  0  0  0  0  0  0
    7.1812  -14.2442   15.6353 H   0  0  0  0  0  0  0  0  0  0  0  0
    5.6063  -16.0483   16.4888 H   0  0  0  0  0  0  0  0  0  0  0  0
  1  2  1  0
  2  3  1  0
  3  4  1  0
  4  5  1  0
  4  6  1  0
  6  7  1  0
  7  8  1  0
  7  9  1  0
  9 10  2  0
  9 11  1  0
 11 12  2  0
 12 13  1  0
 13 14  2  0
 14 15  1  0
 15 16  2  0
  2 17  1  0
 17 18  2  0
 17 19  1  0
 19 20  1  0
 20 21  2  0
 21 22  1  0
 22 23  2  0
 23 24  1  0
 16 11  1  0
 24 20  1  0
  1 25  1  0
  1 26  1  0
  1 27  1  0
  3 28  1  0
  3 29  1  0
  4 30  1  0
  5 31  1  0
  6 32  1  0
  6 33  1  0
  8 34  1  0
  8 35  1  0
  8 36  1  0
 12 37  1  0
 14 38  1  0
 15 39  1  0
 19 40  1  0
 19 41  1  0
 21 42  1  0
 23 43  1  0
 24 44  1  0
M  END
>  <Energy>  (907) 
289.29100363739929

>  <compound_id>  (907) 
50866

>  <target_id>  (907) 
1

>  <reference_id>  (907) 
54

>  <inspiration_ids>  (907) 
[80, 54]

>  <energy_score>  (907) 
102.07712134863039

>  <distance_score>  (907) 
14.267856957121772

>  <path>  (907) 
/opt/xchem-fragalysis-2/maxwin/BulkDock/SCRATCH/511021/C50866-P54/C50866-P54.minimised.mol

>  <scratch_subdir>  (907) 
/opt/xchem-fragalysis-2/maxwin/BulkDock/SCRATCH/511021/C50866-P54

>  <fragmenstein_runtime>  (907) 
33.134018421173096

>  <fragmenstein_outcome>  (907) 
too moved

>  <fragmenstein_mode>  (907) 
expansion

>  <fragmenstein_error>  (907) 


$$$$
C50836-P80
     RDKit          3D

 37 38  0  0  0  0  0  0  0  0999 V2000
   -3.4455  -18.1361   25.5194 C   0  0  0  0  0  0  0  0  0  0  0  0
   -4.3717  -16.9712   25.0657 C   0  0  0  0  0  0  0  0  0  0  0  0
   -5.2081  -17.2844   23.6577 C   0  0  0  0  0  0  0  0  0  0  0  0
   -4.7438  -16.8667   22.3069 N   0  0  0  0  0  0  0  0  0  0  0  0
   -4.2077  -17.6524   21.1877 C   0  0  0  0  0  0  0  0  0  0  0  0
   -4.0841  -18.8401   21.0551 O   0  0  0  0  0  0  0  0  0  0  0  0
   -3.5967  -16.8177   20.0104 C   0  0  0  0  0  0  0  0  0  0  0  0
   -2.5491  -17.3555   19.2578 C   0  0  0  0  0  0  0  0  0  0  0  0
   -1.7983  -16.6377   18.3482 N   0  0  0  0  0  0  0  0  0  0  0  0
   -2.1426  -15.3441   18.1987 C   0  0  0  0  0  0  0  0  0  0  0  0
   -3.1784  -14.7936   18.9312 C   0  0  0  0  0  0  0  0  0  0  0  0
   -3.9227  -15.5038   19.8440 N   0  0  0  0  0  0  0  0  0  0  0  0
   -5.3793  -16.9575   26.1198 N   0  0  0  0  0  0  0  0  0  0  0  0
   -5.9307  -18.0171   26.8904 C   0  0  0  0  0  0  0  0  0  0  0  0
   -5.6417  -19.1757   26.9248 O   0  0  0  0  0  0  0  0  0  0  0  0
   -7.4989  -17.3446   27.9058 C   0  0  0  0  0  0  0  0  0  0  0  0
   -9.0459  -18.4075   28.2708 C   0  0  0  0  0  0  0  0  0  0  0  0
   -9.0799  -19.6929   28.3528 N   0  0  0  0  0  0  0  0  0  0  0  0
  -10.2368  -20.8991   29.0153 C   0  0  0  0  0  0  0  0  0  0  0  0
  -11.1744  -20.1164   29.5813 C   0  0  0  0  0  0  0  0  0  0  0  0
  -10.7530  -18.2663   29.1392 N   0  0  0  0  0  0  0  0  0  0  0  0
   -2.4048  -17.8736   25.4253 H   0  0  0  0  0  0  0  0  0  0  0  0
   -3.4846  -18.3359   26.5966 H   0  0  0  0  0  0  0  0  0  0  0  0
   -3.6451  -19.0689   24.9838 H   0  0  0  0  0  0  0  0  0  0  0  0
   -3.7427  -16.1195   24.9584 H   0  0  0  0  0  0  0  0  0  0  0  0
   -6.1570  -16.7481   23.7475 H   0  0  0  0  0  0  0  0  0  0  0  0
   -5.4202  -18.3565   23.6069 H   0  0  0  0  0  0  0  0  0  0  0  0
   -4.7731  -15.8939   22.0427 H   0  0  0  0  0  0  0  0  0  0  0  0
   -2.2344  -18.3856   19.3948 H   0  0  0  0  0  0  0  0  0  0  0  0
   -1.5719  -14.7699   17.4796 H   0  0  0  0  0  0  0  0  0  0  0  0
   -3.4569  -13.7509   18.8142 H   0  0  0  0  0  0  0  0  0  0  0  0
   -5.8107  -16.0887   26.4046 H   0  0  0  0  0  0  0  0  0  0  0  0
   -7.9191  -16.5193   27.3138 H   0  0  0  0  0  0  0  0  0  0  0  0
   -7.1399  -16.9405   28.8565 H   0  0  0  0  0  0  0  0  0  0  0  0
  -10.1340  -21.9153   28.6561 H   0  0  0  0  0  0  0  0  0  0  0  0
  -12.2538  -20.1987   29.5908 H   0  0  0  0  0  0  0  0  0  0  0  0
  -11.4982  -17.9096   28.5912 H   0  0  0  0  0  0  0  0  0  0  0  0
  1  2  1  0
  2  3  1  0
  3  4  1  0
  4  5  1  0
  5  6  2  0
  5  7  1  0
  7  8  2  0
  8  9  1  0
  9 10  2  0
 10 11  1  0
 11 12  2  0
  2 13  1  0
 13 14  1  0
 14 15  2  0
 14 16  1  0
 16 17  1  0
 17 18  2  0
 18 19  1  0
 19 20  2  0
 20 21  1  0
 12  7  1  0
 21 17  1  0
  1 22  1  0
  1 23  1  0
  1 24  1  0
  2 25  1  0
  3 26  1  0
  3 27  1  0
  4 28  1  0
  8 29  1  0
 10 30  1  0
 11 31  1  0
 13 32  1  0
 16 33  1  0
 16 34  1  0
 19 35  1  0
 20 36  1  0
 21 37  1  0
M  END
>  <Energy>  (908) 
458.3053875639248

>  <compound_id>  (908) 
50836

>  <target_id>  (908) 
1

>  <reference_id>  (908) 
80

>  <inspiration_ids>  (908) 
[80, 54]

>  <energy_score>  (908) 
342.34537466469976

>  <distance_score>  (908) 
13.511093480042025

>  <path>  (908) 
/opt/xchem-fragalysis-2/maxwin/BulkDock/SCRATCH/511021/C50836-P80/C50836-P80.minimised.mol

>  <scratch_subdir>  (908) 
/opt/xchem-fragalysis-2/maxwin/BulkDock/SCRATCH/511021/C50836-P80

>  <fragmenstein_runtime>  (908) 
36.397024393081665

>  <fragmenstein_outcome>  (908) 
too moved

>  <fragmenstein_mode>  (908) 
expansion

>  <fragmenstein_error>  (908) 


$$$$
C50836-P54
     RDKit          3D

 37 38  0  0  0  0  0  0  0  0999 V2000
   -3.2445  -10.6592   27.8307 C   0  0  0  0  0  0  0  0  0  0  0  0
   -2.1433  -11.9175   27.6953 C   0  0  0  0  0  0  0  0  0  0  0  0
   -0.9587  -12.5067   26.0862 C   0  0  0  0  0  0  0  0  0  0  0  0
    0.3674  -11.8545   24.5582 N   0  0  0  0  0  0  0  0  0  0  0  0
    0.2375  -12.0025   22.8472 C   0  0  0  0  0  0  0  0  0  0  0  0
   -0.6447  -12.6183   22.2319 O   0  0  0  0  0  0  0  0  0  0  0  0
    1.3123  -11.1169   21.6594 C   0  0  0  0  0  0  0  0  0  0  0  0
    2.3611  -11.4439   21.0007 C   0  0  0  0  0  0  0  0  0  0  0  0
    2.8408  -10.8057   19.5685 N   0  0  0  0  0  0  0  0  0  0  0  0
    2.4169  -10.0742   18.6231 C   0  0  0  0  0  0  0  0  0  0  0  0
    1.2293  -10.0576   19.0707 C   0  0  0  0  0  0  0  0  0  0  0  0
    0.7171  -10.4909   20.5755 N   0  0  0  0  0  0  0  0  0  0  0  0
   -2.6950  -12.5551   29.0847 N   0  0  0  0  0  0  0  0  0  0  0  0
   -3.8262  -13.4753   29.3509 C   0  0  0  0  0  0  0  0  0  0  0  0
   -4.5671  -14.0425   28.5958 O   0  0  0  0  0  0  0  0  0  0  0  0
   -3.9445  -13.7022   30.8594 C   0  0  0  0  0  0  0  0  0  0  0  0
   -5.3128  -14.1465   31.2725 C   0  0  0  0  0  0  0  0  0  0  0  0
   -6.3499  -13.3633   31.5122 N   0  0  0  0  0  0  0  0  0  0  0  0
   -7.2502  -14.1379   32.1909 C   0  0  0  0  0  0  0  0  0  0  0  0
   -6.7294  -15.3841   32.4000 C   0  0  0  0  0  0  0  0  0  0  0  0
   -5.6077  -15.4419   31.6236 N   0  0  0  0  0  0  0  0  0  0  0  0
   -3.4804  -10.0850   26.9319 H   0  0  0  0  0  0  0  0  0  0  0  0
   -2.8817   -9.9541   28.5951 H   0  0  0  0  0  0  0  0  0  0  0  0
   -4.2097  -11.0040   28.2232 H   0  0  0  0  0  0  0  0  0  0  0  0
   -1.2599  -11.6375   28.3220 H   0  0  0  0  0  0  0  0  0  0  0  0
   -0.3716  -13.2346   26.7118 H   0  0  0  0  0  0  0  0  0  0  0  0
   -1.8225  -12.9376   25.5505 H   0  0  0  0  0  0  0  0  0  0  0  0
    1.1880  -11.4083   24.7614 H   0  0  0  0  0  0  0  0  0  0  0  0
    2.8749  -12.3364   21.3399 H   0  0  0  0  0  0  0  0  0  0  0  0
    2.9127   -9.7940   17.7307 H   0  0  0  0  0  0  0  0  0  0  0  0
    0.4157   -9.6416   18.4604 H   0  0  0  0  0  0  0  0  0  0  0  0
   -2.3427  -12.1968   29.9651 H   0  0  0  0  0  0  0  0  0  0  0  0
   -3.7203  -12.7713   31.3929 H   0  0  0  0  0  0  0  0  0  0  0  0
   -3.1954  -14.4458   31.1532 H   0  0  0  0  0  0  0  0  0  0  0  0
   -8.1878  -13.7367   32.5491 H   0  0  0  0  0  0  0  0  0  0  0  0
   -7.0804  -16.2413   32.9507 H   0  0  0  0  0  0  0  0  0  0  0  0
   -5.0307  -16.2586   31.4774 H   0  0  0  0  0  0  0  0  0  0  0  0
  1  2  1  0
  2  3  1  0
  3  4  1  0
  4  5  1  0
  5  6  2  0
  5  7  1  0
  7  8  2  0
  8  9  1  0
  9 10  2  0
 10 11  1  0
 11 12  2  0
  2 13  1  0
 13 14  1  0
 14 15  2  0
 14 16  1  0
 16 17  1  0
 17 18  2  0
 18 19  1  0
 19 20  2  0
 20 21  1  0
 12  7  1  0
 21 17  1  0
  1 22  1  0
  1 23  1  0
  1 24  1  0
  2 25  1  0
  3 26  1  0
  3 27  1  0
  4 28  1  0
  8 29  1  0
 10 30  1  0
 11 31  1  0
 13 32  1  0
 16 33  1  0
 16 34  1  0
 19 35  1  0
 20 36  1  0
 21 37  1  0
M  END
>  <Energy>  (909) 
601.81093225620373

>  <compound_id>  (909) 
50836

>  <target_id>  (909) 
1

>  <reference_id>  (909) 
54

>  <inspiration_ids>  (909) 
[80, 54]

>  <energy_score>  (909) 
485.8509193569918

>  <distance_score>  (909) 
13.05921959995587

>  <path>  (909) 
/opt/xchem-fragalysis-2/maxwin/BulkDock/SCRATCH/511021/C50836-P54/C50836-P54.minimised.mol

>  <scratch_subdir>  (909) 
/opt/xchem-fragalysis-2/maxwin/BulkDock/SCRATCH/511021/C50836-P54

>  <fragmenstein_runtime>  (909) 
29.331300735473633

>  <fragmenstein_outcome>  (909) 
too moved

>  <fragmenstein_mode>  (909) 
expansion

>  <fragmenstein_error>  (909) 


$$$$
C50837-P80
     RDKit          3D

 43 44  0  0  0  0  0  0  0  0999 V2000
   -4.0481  -22.9093   26.7965 C   0  0  0  0  0  0  0  0  0  0  0  0
   -3.4045  -21.5469   26.8199 C   0  0  0  0  0  0  0  0  0  0  0  0
   -3.8563  -20.6799   25.7110 C   0  0  0  0  0  0  0  0  0  0  0  0
   -3.8830  -20.8597   24.3460 C   0  0  0  0  0  0  0  0  0  0  0  0
   -4.3064  -19.7198   23.7106 N   0  0  0  0  0  0  0  0  0  0  0  0
   -4.5419  -18.8364   24.6612 C   0  0  0  0  0  0  0  0  0  0  0  0
   -4.8075  -17.3644   24.4671 C   0  0  0  0  0  0  0  0  0  0  0  0
   -3.6458  -16.6762   25.1681 C   0  0  0  0  0  0  0  0  0  0  0  0
   -3.3858  -17.0591   26.2833 O   0  0  0  0  0  0  0  0  0  0  0  0
   -2.9581  -15.6715   24.2997 N   0  0  0  0  0  0  0  0  0  0  0  0
   -1.6306  -14.8756   24.5167 C   0  0  0  0  0  0  0  0  0  0  0  0
   -2.1400  -14.4040   25.8684 C   0  0  0  0  0  0  0  0  0  0  0  0
   -0.3407  -13.8842   23.3192 C   0  0  0  0  0  0  0  0  0  0  0  0
    0.0697  -12.0077   22.7598 N   0  0  0  0  0  0  0  0  0  0  0  0
   -0.8575  -10.8660   21.7465 C   0  0  0  0  0  0  0  0  0  0  0  0
   -1.8929  -11.1058   21.1402 O   0  0  0  0  0  0  0  0  0  0  0  0
   -0.5112   -9.3508   21.6239 C   0  0  0  0  0  0  0  0  0  0  0  0
    0.6381   -8.6997   21.3003 C   0  0  0  0  0  0  0  0  0  0  0  0
    0.8147   -7.3422   21.1118 N   0  0  0  0  0  0  0  0  0  0  0  0
   -0.2840   -6.6051   21.2171 C   0  0  0  0  0  0  0  0  0  0  0  0
   -1.4737   -7.2067   21.5415 C   0  0  0  0  0  0  0  0  0  0  0  0
   -1.6038   -8.5453   21.7730 N   0  0  0  0  0  0  0  0  0  0  0  0
   -4.3363  -19.4096   25.9044 N   0  0  0  0  0  0  0  0  0  0  0  0
   -5.1322  -22.8236   26.9139 H   0  0  0  0  0  0  0  0  0  0  0  0
   -3.8441  -23.4369   25.8590 H   0  0  0  0  0  0  0  0  0  0  0  0
   -3.6555  -23.5154   27.6188 H   0  0  0  0  0  0  0  0  0  0  0  0
   -3.5946  -21.0734   27.7869 H   0  0  0  0  0  0  0  0  0  0  0  0
   -2.3163  -21.6656   26.7478 H   0  0  0  0  0  0  0  0  0  0  0  0
   -3.6025  -21.7412   23.7830 H   0  0  0  0  0  0  0  0  0  0  0  0
   -5.7089  -17.0017   24.9431 H   0  0  0  0  0  0  0  0  0  0  0  0
   -4.8817  -17.1151   23.4051 H   0  0  0  0  0  0  0  0  0  0  0  0
   -3.4990  -15.5371   23.4543 H   0  0  0  0  0  0  0  0  0  0  0  0
   -1.1517  -15.7270   24.4997 H   0  0  0  0  0  0  0  0  0  0  0  0
   -2.5202  -13.3717   25.7485 H   0  0  0  0  0  0  0  0  0  0  0  0
   -2.9263  -14.9438   26.4150 H   0  0  0  0  0  0  0  0  0  0  0  0
   -1.6735  -14.7627   26.8023 H   0  0  0  0  0  0  0  0  0  0  0  0
   -0.3621  -14.4333   22.4060 H   0  0  0  0  0  0  0  0  0  0  0  0
    0.5685  -14.1252   23.8931 H   0  0  0  0  0  0  0  0  0  0  0  0
    0.9040  -11.5299   23.1381 H   0  0  0  0  0  0  0  0  0  0  0  0
    1.5093   -9.2707   21.1262 H   0  0  0  0  0  0  0  0  0  0  0  0
   -0.1920   -5.5427   21.0420 H   0  0  0  0  0  0  0  0  0  0  0  0
   -2.3907   -6.6361   21.6295 H   0  0  0  0  0  0  0  0  0  0  0  0
   -4.3565  -18.8899   26.7760 H   0  0  0  0  0  0  0  0  0  0  0  0
  1  2  1  0
  2  3  1  0
  3  4  2  0
  4  5  1  0
  5  6  2  0
  6  7  1  0
  7  8  1  0
  8  9  2  0
  8 10  1  0
 10 11  1  0
 11 12  1  0
 11 13  1  0
 13 14  1  0
 14 15  1  0
 15 16  2  0
 15 17  1  0
 17 18  2  0
 18 19  1  0
 19 20  2  0
 20 21  1  0
 21 22  2  0
  6 23  1  0
 23  3  1  0
 22 17  1  0
  1 24  1  0
  1 25  1  0
  1 26  1  0
  2 27  1  0
  2 28  1  0
  4 29  1  0
  7 30  1  0
  7 31  1  0
 10 32  1  0
 11 33  1  0
 12 34  1  0
 12 35  1  0
 12 36  1  0
 13 37  1  0
 13 38  1  0
 14 39  1  0
 18 40  1  0
 20 41  1  0
 21 42  1  0
 23 43  1  0
M  END
>  <Energy>  (910) 
402.09144940224763

>  <compound_id>  (910) 
50837

>  <target_id>  (910) 
1

>  <reference_id>  (910) 
80

>  <inspiration_ids>  (910) 
[80, 54]

>  <energy_score>  (910) 
277.93692016877355

>  <distance_score>  (910) 
13.129574502729152

>  <path>  (910) 
/opt/xchem-fragalysis-2/maxwin/BulkDock/SCRATCH/511021/C50837-P80/C50837-P80.minimised.mol

>  <scratch_subdir>  (910) 
/opt/xchem-fragalysis-2/maxwin/BulkDock/SCRATCH/511021/C50837-P80

>  <fragmenstein_runtime>  (910) 
41.75078821182251

>  <fragmenstein_outcome>  (910) 
too moved

>  <fragmenstein_mode>  (910) 
expansion

>  <fragmenstein_error>  (910) 


$$$$
C50837-P54
     RDKit          3D

 43 44  0  0  0  0  0  0  0  0999 V2000
   -2.4675  -20.6539   28.0463 C   0  0  0  0  0  0  0  0  0  0  0  0
   -3.2859  -20.1317   26.8725 C   0  0  0  0  0  0  0  0  0  0  0  0
   -2.6324  -20.4451   25.5726 C   0  0  0  0  0  0  0  0  0  0  0  0
   -3.0958  -21.1359   24.4789 C   0  0  0  0  0  0  0  0  0  0  0  0
   -2.1361  -21.1827   23.5020 N   0  0  0  0  0  0  0  0  0  0  0  0
   -1.0677  -20.5492   23.9676 C   0  0  0  0  0  0  0  0  0  0  0  0
    0.2557  -20.4450   23.2066 C   0  0  0  0  0  0  0  0  0  0  0  0
    1.4049  -19.5518   23.7605 C   0  0  0  0  0  0  0  0  0  0  0  0
    1.2256  -18.8431   24.7149 O   0  0  0  0  0  0  0  0  0  0  0  0
    2.6175  -19.7803   22.9447 N   0  0  0  0  0  0  0  0  0  0  0  0
    3.9719  -19.1291   22.9884 C   0  0  0  0  0  0  0  0  0  0  0  0
    4.4264  -18.8498   24.4139 C   0  0  0  0  0  0  0  0  0  0  0  0
    4.0343  -17.8621   22.0959 C   0  0  0  0  0  0  0  0  0  0  0  0
    5.2810  -17.2271   21.6284 N   0  0  0  0  0  0  0  0  0  0  0  0
    5.8451  -17.1116   20.3036 C   0  0  0  0  0  0  0  0  0  0  0  0
    5.4844  -17.5736   19.2568 O   0  0  0  0  0  0  0  0  0  0  0  0
    7.0403  -16.1608   20.1888 C   0  0  0  0  0  0  0  0  0  0  0  0
    7.3728  -15.6539   18.9242 C   0  0  0  0  0  0  0  0  0  0  0  0
    8.2863  -14.6533   18.7088 N   0  0  0  0  0  0  0  0  0  0  0  0
    8.8693  -14.1753   19.8256 C   0  0  0  0  0  0  0  0  0  0  0  0
    8.5611  -14.6808   21.0841 C   0  0  0  0  0  0  0  0  0  0  0  0
    7.6366  -15.6674   21.3090 N   0  0  0  0  0  0  0  0  0  0  0  0
   -1.3457  -20.0642   25.2286 N   0  0  0  0  0  0  0  0  0  0  0  0
   -2.9493  -20.4029   28.9939 H   0  0  0  0  0  0  0  0  0  0  0  0
   -2.3535  -21.7420   27.9972 H   0  0  0  0  0  0  0  0  0  0  0  0
   -1.4645  -20.2138   28.0638 H   0  0  0  0  0  0  0  0  0  0  0  0
   -4.2921  -20.5616   26.9043 H   0  0  0  0  0  0  0  0  0  0  0  0
   -3.4014  -19.0453   26.9644 H   0  0  0  0  0  0  0  0  0  0  0  0
   -4.0607  -21.6084   24.3415 H   0  0  0  0  0  0  0  0  0  0  0  0
    0.6445  -21.4671   23.1143 H   0  0  0  0  0  0  0  0  0  0  0  0
    0.0260  -20.0782   22.1982 H   0  0  0  0  0  0  0  0  0  0  0  0
    2.4290  -20.5093   22.2649 H   0  0  0  0  0  0  0  0  0  0  0  0
    4.6486  -19.8752   22.5546 H   0  0  0  0  0  0  0  0  0  0  0  0
    3.7909  -18.1016   24.8965 H   0  0  0  0  0  0  0  0  0  0  0  0
    4.3863  -19.7608   25.0205 H   0  0  0  0  0  0  0  0  0  0  0  0
    5.4560  -18.4777   24.4282 H   0  0  0  0  0  0  0  0  0  0  0  0
    3.4936  -18.1057   21.1753 H   0  0  0  0  0  0  0  0  0  0  0  0
    3.5017  -17.0579   22.6121 H   0  0  0  0  0  0  0  0  0  0  0  0
    5.8047  -16.6343   22.2628 H   0  0  0  0  0  0  0  0  0  0  0  0
    6.8765  -16.0131   18.0270 H   0  0  0  0  0  0  0  0  0  0  0  0
    9.5937  -13.3817   19.6909 H   0  0  0  0  0  0  0  0  0  0  0  0
    9.0404  -14.2858   21.9738 H   0  0  0  0  0  0  0  0  0  0  0  0
   -0.6915  -19.5322   25.7921 H   0  0  0  0  0  0  0  0  0  0  0  0
  1  2  1  0
  2  3  1  0
  3  4  2  0
  4  5  1  0
  5  6  2  0
  6  7  1  0
  7  8  1  0
  8  9  2  0
  8 10  1  0
 10 11  1  0
 11 12  1  0
 11 13  1  0
 13 14  1  0
 14 15  1  0
 15 16  2  0
 15 17  1  0
 17 18  2  0
 18 19  1  0
 19 20  2  0
 20 21  1  0
 21 22  2  0
  6 23  1  0
 23  3  1  0
 22 17  1  0
  1 24  1  0
  1 25  1  0
  1 26  1  0
  2 27  1  0
  2 28  1  0
  4 29  1  0
  7 30  1  0
  7 31  1  0
 10 32  1  0
 11 33  1  0
 12 34  1  0
 12 35  1  0
 12 36  1  0
 13 37  1  0
 13 38  1  0
 14 39  1  0
 18 40  1  0
 20 41  1  0
 21 42  1  0
 23 43  1  0
M  END
>  <Energy>  (911) 
110.64024030996906

>  <compound_id>  (911) 
50837

>  <target_id>  (911) 
1

>  <reference_id>  (911) 
54

>  <inspiration_ids>  (911) 
[80, 54]

>  <energy_score>  (911) 
-13.514288923485594

>  <distance_score>  (911) 
14.113321230179624

>  <path>  (911) 
/opt/xchem-fragalysis-2/maxwin/BulkDock/SCRATCH/511021/C50837-P54/C50837-P54.minimised.mol

>  <scratch_subdir>  (911) 
/opt/xchem-fragalysis-2/maxwin/BulkDock/SCRATCH/511021/C50837-P54

>  <fragmenstein_runtime>  (911) 
56.54494881629944

>  <fragmenstein_outcome>  (911) 
too moved

>  <fragmenstein_mode>  (911) 
expansion

>  <fragmenstein_error>  (911) 


$$$$
C50838-P80
     RDKit          3D

 44 46  0  0  0  0  0  0  0  0999 V2000
   -7.3559  -17.3874   29.0088 C   0  0  0  0  0  0  0  0  0  0  0  0
   -7.7589  -18.6811   27.7194 C   0  0  0  0  0  0  0  0  0  0  0  0
   -6.0596  -19.1567   26.7806 C   0  0  0  0  0  0  0  0  0  0  0  0
   -4.9277  -20.3439   26.3129 N   0  0  0  0  0  0  0  0  0  0  0  0
   -4.1979  -20.5461   25.0010 C   0  0  0  0  0  0  0  0  0  0  0  0
   -4.3061  -19.9632   23.9478 O   0  0  0  0  0  0  0  0  0  0  0  0
   -3.0668  -21.5341   24.9237 C   0  0  0  0  0  0  0  0  0  0  0  0
   -2.4127  -21.6269   23.6552 C   0  0  0  0  0  0  0  0  0  0  0  0
   -1.2099  -22.2255   23.4460 N   0  0  0  0  0  0  0  0  0  0  0  0
   -0.6655  -22.7268   24.5706 C   0  0  0  0  0  0  0  0  0  0  0  0
   -1.3141  -22.6727   25.8177 C   0  0  0  0  0  0  0  0  0  0  0  0
   -2.5093  -22.0442   26.0465 N   0  0  0  0  0  0  0  0  0  0  0  0
   -8.1746  -20.6966   27.7508 N   0  0  0  0  0  0  0  0  0  0  0  0
   -9.6677  -21.6061   28.3990 C   0  0  0  0  0  0  0  0  0  0  0  0
  -10.6597  -21.1803   28.9940 O   0  0  0  0  0  0  0  0  0  0  0  0
   -9.6640  -23.1614   28.1011 C   0  0  0  0  0  0  0  0  0  0  0  0
  -10.2247  -24.0682   29.1351 C   0  0  0  0  0  0  0  0  0  0  0  0
   -9.7863  -25.2873   29.3684 N   0  0  0  0  0  0  0  0  0  0  0  0
  -10.3403  -25.6498   30.5663 C   0  0  0  0  0  0  0  0  0  0  0  0
  -11.1614  -24.6557   31.0327 C   0  0  0  0  0  0  0  0  0  0  0  0
  -11.2008  -23.7202   30.0386 N   0  0  0  0  0  0  0  0  0  0  0  0
   -8.8590  -17.3158   27.1302 C   0  0  0  0  0  0  0  0  0  0  0  0
   -8.4165  -15.8943   26.5873 C   0  0  0  0  0  0  0  0  0  0  0  0
   -9.6878  -16.2927   26.1704 C   0  0  0  0  0  0  0  0  0  0  0  0
   -6.2849  -17.1601   29.1673 H   0  0  0  0  0  0  0  0  0  0  0  0
   -7.4686  -17.7624   30.0005 H   0  0  0  0  0  0  0  0  0  0  0  0
   -7.6936  -16.4039   28.7283 H   0  0  0  0  0  0  0  0  0  0  0  0
   -5.4267  -18.4305   27.2712 H   0  0  0  0  0  0  0  0  0  0  0  0
   -6.1369  -18.9430   25.7557 H   0  0  0  0  0  0  0  0  0  0  0  0
   -4.6460  -21.0640   26.9632 H   0  0  0  0  0  0  0  0  0  0  0  0
   -2.8316  -21.1718   22.7622 H   0  0  0  0  0  0  0  0  0  0  0  0
    0.3055  -23.1958   24.4592 H   0  0  0  0  0  0  0  0  0  0  0  0
   -0.8447  -23.1098   26.6931 H   0  0  0  0  0  0  0  0  0  0  0  0
   -7.5086  -21.3480   27.3915 H   0  0  0  0  0  0  0  0  0  0  0  0
   -8.6329  -23.3717   27.9304 H   0  0  0  0  0  0  0  0  0  0  0  0
  -10.2680  -23.3863   27.2152 H   0  0  0  0  0  0  0  0  0  0  0  0
  -10.0890  -26.5865   31.0503 H   0  0  0  0  0  0  0  0  0  0  0  0
  -11.7262  -24.5491   31.9489 H   0  0  0  0  0  0  0  0  0  0  0  0
  -11.6561  -22.8156   30.0840 H   0  0  0  0  0  0  0  0  0  0  0  0
   -9.7773  -17.7122   27.4269 H   0  0  0  0  0  0  0  0  0  0  0  0
   -8.3647  -15.0305   27.2481 H   0  0  0  0  0  0  0  0  0  0  0  0
   -7.9835  -15.6612   25.6040 H   0  0  0  0  0  0  0  0  0  0  0  0
   -9.8921  -16.4562   25.1211 H   0  0  0  0  0  0  0  0  0  0  0  0
  -10.3705  -15.5418   26.5829 H   0  0  0  0  0  0  0  0  0  0  0  0
  1  2  1  0
  2  3  1  0
  3  4  1  0
  4  5  1  0
  5  6  2  0
  5  7  1  0
  7  8  2  0
  8  9  1  0
  9 10  2  0
 10 11  1  0
 11 12  2  0
  2 13  1  0
 13 14  1  0
 14 15  2  0
 14 16  1  0
 16 17  1  0
 17 18  2  0
 18 19  1  0
 19 20  2  0
 20 21  1  0
  2 22  1  0
 22 23  1  0
 23 24  1  0
 12  7  1  0
 21 17  1  0
 24 22  1  0
  1 25  1  0
  1 26  1  0
  1 27  1  0
  3 28  1  0
  3 29  1  0
  4 30  1  0
  8 31  1  0
 10 32  1  0
 11 33  1  0
 13 34  1  0
 16 35  1  0
 16 36  1  0
 19 37  1  0
 20 38  1  0
 21 39  1  0
 22 40  1  0
 23 41  1  0
 23 42  1  0
 24 43  1  0
 24 44  1  0
M  END
>  <Energy>  (912) 
594.00085720041034

>  <compound_id>  (912) 
50838

>  <target_id>  (912) 
1

>  <reference_id>  (912) 
80

>  <inspiration_ids>  (912) 
[80, 54]

>  <energy_score>  (912) 
430.43247427568167

>  <distance_score>  (912) 
15.44412341861766

>  <path>  (912) 
/opt/xchem-fragalysis-2/maxwin/BulkDock/SCRATCH/511021/C50838-P80/C50838-P80.minimised.mol

>  <scratch_subdir>  (912) 
/opt/xchem-fragalysis-2/maxwin/BulkDock/SCRATCH/511021/C50838-P80

>  <fragmenstein_runtime>  (912) 
61.14343047142029

>  <fragmenstein_outcome>  (912) 
too moved

>  <fragmenstein_mode>  (912) 
expansion

>  <fragmenstein_error>  (912) 


$$$$
C50838-P54
     RDKit          3D

 44 46  0  0  0  0  0  0  0  0999 V2000
   -4.7245  -14.9976   21.5524 C   0  0  0  0  0  0  0  0  0  0  0  0
   -4.5938  -16.0693   20.4609 C   0  0  0  0  0  0  0  0  0  0  0  0
   -3.9644  -15.3813   19.1578 C   0  0  0  0  0  0  0  0  0  0  0  0
   -2.8055  -14.4447   19.2363 N   0  0  0  0  0  0  0  0  0  0  0  0
   -1.7124  -14.2036   18.3091 C   0  0  0  0  0  0  0  0  0  0  0  0
   -1.4222  -14.7533   17.2835 O   0  0  0  0  0  0  0  0  0  0  0  0
   -0.8090  -12.9985   18.6374 C   0  0  0  0  0  0  0  0  0  0  0  0
    0.2439  -12.6332   17.7768 C   0  0  0  0  0  0  0  0  0  0  0  0
    1.0698  -11.5569   17.9817 N   0  0  0  0  0  0  0  0  0  0  0  0
    0.7996  -10.8404   19.0903 C   0  0  0  0  0  0  0  0  0  0  0  0
   -0.2381  -11.1927   19.9511 C   0  0  0  0  0  0  0  0  0  0  0  0
   -1.0594  -12.2671   19.7588 N   0  0  0  0  0  0  0  0  0  0  0  0
   -5.9270  -16.6566   20.1536 N   0  0  0  0  0  0  0  0  0  0  0  0
   -7.1084  -16.8352   20.9889 C   0  0  0  0  0  0  0  0  0  0  0  0
   -7.3332  -16.4801   22.1158 O   0  0  0  0  0  0  0  0  0  0  0  0
   -8.2080  -17.6164   20.2420 C   0  0  0  0  0  0  0  0  0  0  0  0
   -8.4862  -18.9544   20.8705 C   0  0  0  0  0  0  0  0  0  0  0  0
   -7.6417  -19.9624   20.9787 N   0  0  0  0  0  0  0  0  0  0  0  0
   -8.3832  -21.0407   21.3967 C   0  0  0  0  0  0  0  0  0  0  0  0
   -9.6972  -20.6851   21.5690 C   0  0  0  0  0  0  0  0  0  0  0  0
   -9.7431  -19.3491   21.2831 N   0  0  0  0  0  0  0  0  0  0  0  0
   -3.7084  -17.2360   20.9227 C   0  0  0  0  0  0  0  0  0  0  0  0
   -4.0529  -18.1097   22.1146 C   0  0  0  0  0  0  0  0  0  0  0  0
   -4.0572  -18.7045   20.7371 C   0  0  0  0  0  0  0  0  0  0  0  0
   -5.4141  -14.2045   21.2417 H   0  0  0  0  0  0  0  0  0  0  0  0
   -3.7672  -14.5303   21.7955 H   0  0  0  0  0  0  0  0  0  0  0  0
   -5.1062  -15.4173   22.4857 H   0  0  0  0  0  0  0  0  0  0  0  0
   -3.6905  -16.1594   18.4347 H   0  0  0  0  0  0  0  0  0  0  0  0
   -4.7543  -14.7877   18.6797 H   0  0  0  0  0  0  0  0  0  0  0  0
   -2.7904  -13.7296   19.9598 H   0  0  0  0  0  0  0  0  0  0  0  0
    0.4513  -13.2057   16.8763 H   0  0  0  0  0  0  0  0  0  0  0  0
    1.4307   -9.9789   19.2754 H   0  0  0  0  0  0  0  0  0  0  0  0
   -0.4422  -10.6032   20.8398 H   0  0  0  0  0  0  0  0  0  0  0  0
   -6.0564  -17.1612   19.2848 H   0  0  0  0  0  0  0  0  0  0  0  0
   -9.1091  -16.9912   20.2496 H   0  0  0  0  0  0  0  0  0  0  0  0
   -7.9457  -17.7704   19.1903 H   0  0  0  0  0  0  0  0  0  0  0  0
   -7.9347  -22.0145   21.5466 H   0  0  0  0  0  0  0  0  0  0  0  0
  -10.5667  -21.2439   21.8832 H   0  0  0  0  0  0  0  0  0  0  0  0
  -10.5717  -18.7689   21.3507 H   0  0  0  0  0  0  0  0  0  0  0  0
   -2.6613  -17.0300   20.7301 H   0  0  0  0  0  0  0  0  0  0  0  0
   -5.0062  -17.9717   22.6051 H   0  0  0  0  0  0  0  0  0  0  0  0
   -3.2426  -18.3782   22.7839 H   0  0  0  0  0  0  0  0  0  0  0  0
   -3.2498  -19.3861   20.4881 H   0  0  0  0  0  0  0  0  0  0  0  0
   -5.0152  -19.0200   20.3444 H   0  0  0  0  0  0  0  0  0  0  0  0
  1  2  1  0
  2  3  1  0
  3  4  1  0
  4  5  1  0
  5  6  2  0
  5  7  1  0
  7  8  2  0
  8  9  1  0
  9 10  2  0
 10 11  1  0
 11 12  2  0
  2 13  1  0
 13 14  1  0
 14 15  2  0
 14 16  1  0
 16 17  1  0
 17 18  2  0
 18 19  1  0
 19 20  2  0
 20 21  1  0
  2 22  1  0
 22 23  1  0
 23 24  1  0
 12  7  1  0
 21 17  1  0
 24 22  1  0
  1 25  1  0
  1 26  1  0
  1 27  1  0
  3 28  1  0
  3 29  1  0
  4 30  1  0
  8 31  1  0
 10 32  1  0
 11 33  1  0
 13 34  1  0
 16 35  1  0
 16 36  1  0
 19 37  1  0
 20 38  1  0
 21 39  1  0
 22 40  1  0
 23 41  1  0
 23 42  1  0
 24 43  1  0
 24 44  1  0
M  END
>  <Energy>  (913) 
139.16578592608661

>  <compound_id>  (913) 
50838

>  <target_id>  (913) 
1

>  <reference_id>  (913) 
54

>  <inspiration_ids>  (913) 
[80, 54]

>  <energy_score>  (913) 
-24.402596998625484

>  <distance_score>  (913) 
13.333958480839517

>  <path>  (913) 
/opt/xchem-fragalysis-2/maxwin/BulkDock/SCRATCH/511021/C50838-P54/C50838-P54.minimised.mol

>  <scratch_subdir>  (913) 
/opt/xchem-fragalysis-2/maxwin/BulkDock/SCRATCH/511021/C50838-P54

>  <fragmenstein_runtime>  (913) 
54.78606390953064

>  <fragmenstein_outcome>  (913) 
too moved

>  <fragmenstein_mode>  (913) 
expansion

>  <fragmenstein_error>  (913) 


$$$$
C28736-P80
     RDKit          3D

 36 37  0  0  0  0  0  0  0  0999 V2000
   -3.1847  -20.3992   25.1870 C   0  0  0  0  0  0  0  0  0  0  0  0
   -2.8867  -19.3774   24.0767 C   0  0  0  0  0  0  0  0  0  0  0  0
   -2.8436  -19.9452   22.6213 C   0  0  0  0  0  0  0  0  0  0  0  0
   -2.3477  -18.9303   21.6130 N   0  0  0  0  0  0  0  0  0  0  0  0
   -1.0328  -18.7981   20.9321 C   0  0  0  0  0  0  0  0  0  0  0  0
   -0.0145  -19.4186   21.0746 O   0  0  0  0  0  0  0  0  0  0  0  0
   -1.0845  -17.6208   19.8698 C   0  0  0  0  0  0  0  0  0  0  0  0
    0.1811  -17.1439   19.1018 C   0  0  0  0  0  0  0  0  0  0  0  0
    1.5307  -17.3987   19.2547 C   0  0  0  0  0  0  0  0  0  0  0  0
    2.2017  -16.6097   18.3529 N   0  0  0  0  0  0  0  0  0  0  0  0
    1.2648  -15.9591   17.5930 C   0  0  0  0  0  0  0  0  0  0  0  0
    1.6281  -15.0579   16.4776 C   0  0  0  0  0  0  0  0  0  0  0  0
    0.0485  -16.2417   18.0305 N   0  0  0  0  0  0  0  0  0  0  0  0
   -4.2438  -20.5329   22.3141 C   0  0  0  0  0  0  0  0  0  0  0  0
   -5.2516  -19.6847   22.0045 N   0  0  0  0  0  0  0  0  0  0  0  0
   -6.4712  -20.2411   21.8074 C   0  0  0  0  0  0  0  0  0  0  0  0
   -6.7333  -21.5871   21.9160 C   0  0  0  0  0  0  0  0  0  0  0  0
   -5.6566  -22.3628   22.2667 C   0  0  0  0  0  0  0  0  0  0  0  0
   -4.4179  -21.8671   22.4810 N   0  0  0  0  0  0  0  0  0  0  0  0
   -4.1781  -20.8362   25.0856 H   0  0  0  0  0  0  0  0  0  0  0  0
   -3.1299  -19.9106   26.1647 H   0  0  0  0  0  0  0  0  0  0  0  0
   -2.4482  -21.2085   25.1688 H   0  0  0  0  0  0  0  0  0  0  0  0
   -3.6226  -18.5652   24.1350 H   0  0  0  0  0  0  0  0  0  0  0  0
   -1.9123  -18.9229   24.2935 H   0  0  0  0  0  0  0  0  0  0  0  0
   -2.1136  -20.7632   22.5890 H   0  0  0  0  0  0  0  0  0  0  0  0
   -3.0102  -18.2941   21.1844 H   0  0  0  0  0  0  0  0  0  0  0  0
   -1.8179  -17.9233   19.1113 H   0  0  0  0  0  0  0  0  0  0  0  0
   -1.4844  -16.7419   20.3900 H   0  0  0  0  0  0  0  0  0  0  0  0
    2.0543  -18.0490   19.9408 H   0  0  0  0  0  0  0  0  0  0  0  0
    3.2034  -16.5627   18.2348 H   0  0  0  0  0  0  0  0  0  0  0  0
    2.2281  -15.5880   15.7316 H   0  0  0  0  0  0  0  0  0  0  0  0
    0.7297  -14.6756   15.9836 H   0  0  0  0  0  0  0  0  0  0  0  0
    2.2039  -14.2034   16.8463 H   0  0  0  0  0  0  0  0  0  0  0  0
   -7.2613  -19.5416   21.5481 H   0  0  0  0  0  0  0  0  0  0  0  0
   -7.7184  -22.0037   21.7511 H   0  0  0  0  0  0  0  0  0  0  0  0
   -5.7567  -23.4364   22.3967 H   0  0  0  0  0  0  0  0  0  0  0  0
  1  2  1  0
  2  3  1  0
  3  4  1  0
  4  5  1  0
  5  6  2  0
  5  7  1  0
  7  8  1  0
  8  9  2  0
  9 10  1  0
 10 11  1  0
 11 12  1  0
 11 13  2  0
  3 14  1  0
 14 15  2  0
 15 16  1  0
 16 17  2  0
 17 18  1  0
 18 19  2  0
 13  8  1  0
 19 14  1  0
  1 20  1  0
  1 21  1  0
  1 22  1  0
  2 23  1  0
  2 24  1  0
  3 25  1  0
  4 26  1  0
  7 27  1  0
  7 28  1  0
  9 29  1  0
 10 30  1  0
 12 31  1  0
 12 32  1  0
 12 33  1  0
 16 34  1  0
 17 35  1  0
 18 36  1  0
M  END
>  <Energy>  (914) 
37.811370698669151

>  <compound_id>  (914) 
28736

>  <target_id>  (914) 
1

>  <reference_id>  (914) 
80

>  <inspiration_ids>  (914) 
[80, 54]

>  <energy_score>  (914) 
-14.479976085429541

>  <distance_score>  (914) 
14.11938004156142

>  <path>  (914) 
/opt/xchem-fragalysis-2/maxwin/BulkDock/SCRATCH/511021/C28736-P80/C28736-P80.minimised.mol

>  <scratch_subdir>  (914) 
/opt/xchem-fragalysis-2/maxwin/BulkDock/SCRATCH/511021/C28736-P80

>  <fragmenstein_runtime>  (914) 
35.11291980743408

>  <fragmenstein_outcome>  (914) 
too moved

>  <fragmenstein_mode>  (914) 
expansion

>  <fragmenstein_error>  (914) 


$$$$
C28736-P54
     RDKit          3D

 36 37  0  0  0  0  0  0  0  0999 V2000
   -1.7843  -19.7924   25.9815 C   0  0  0  0  0  0  0  0  0  0  0  0
   -1.0884  -19.1839   24.7444 C   0  0  0  0  0  0  0  0  0  0  0  0
   -0.6951  -20.1952   23.6327 C   0  0  0  0  0  0  0  0  0  0  0  0
    0.1399  -19.6456   22.4857 N   0  0  0  0  0  0  0  0  0  0  0  0
    1.4910  -19.0075   22.4783 C   0  0  0  0  0  0  0  0  0  0  0  0
    2.2135  -18.7004   23.3881 O   0  0  0  0  0  0  0  0  0  0  0  0
    2.0343  -18.8331   20.9745 C   0  0  0  0  0  0  0  0  0  0  0  0
    3.0951  -17.7495   20.5312 C   0  0  0  0  0  0  0  0  0  0  0  0
    3.1252  -17.0760   19.3097 C   0  0  0  0  0  0  0  0  0  0  0  0
    4.1687  -16.1887   19.3601 N   0  0  0  0  0  0  0  0  0  0  0  0
    4.8223  -16.4002   20.5423 C   0  0  0  0  0  0  0  0  0  0  0  0
    6.0774  -15.6929   20.8765 C   0  0  0  0  0  0  0  0  0  0  0  0
    4.1919  -17.3130   21.2663 N   0  0  0  0  0  0  0  0  0  0  0  0
   -2.0040  -20.9386   23.2441 C   0  0  0  0  0  0  0  0  0  0  0  0
   -3.0005  -20.2390   22.6563 N   0  0  0  0  0  0  0  0  0  0  0  0
   -4.1957  -20.8603   22.5296 C   0  0  0  0  0  0  0  0  0  0  0  0
   -4.4485  -22.1384   22.9634 C   0  0  0  0  0  0  0  0  0  0  0  0
   -3.3786  -22.7725   23.5380 C   0  0  0  0  0  0  0  0  0  0  0  0
   -2.1647  -22.2029   23.7040 N   0  0  0  0  0  0  0  0  0  0  0  0
   -2.7887  -20.1544   25.7444 H   0  0  0  0  0  0  0  0  0  0  0  0
   -1.8834  -19.0287   26.7597 H   0  0  0  0  0  0  0  0  0  0  0  0
   -1.1959  -20.6203   26.3887 H   0  0  0  0  0  0  0  0  0  0  0  0
   -0.1727  -18.6930   25.0744 H   0  0  0  0  0  0  0  0  0  0  0  0
   -1.7260  -18.3940   24.3287 H   0  0  0  0  0  0  0  0  0  0  0  0
   -0.0273  -20.9349   24.0939 H   0  0  0  0  0  0  0  0  0  0  0  0
   -0.2152  -19.6847   21.5383 H   0  0  0  0  0  0  0  0  0  0  0  0
    1.1632  -18.7013   20.3207 H   0  0  0  0  0  0  0  0  0  0  0  0
    2.4774  -19.8044   20.7161 H   0  0  0  0  0  0  0  0  0  0  0  0
    2.4699  -17.1248   18.4519 H   0  0  0  0  0  0  0  0  0  0  0  0
    4.4357  -15.5339   18.6382 H   0  0  0  0  0  0  0  0  0  0  0  0
    6.6505  -16.2593   21.6160 H   0  0  0  0  0  0  0  0  0  0  0  0
    5.8602  -14.6997   21.2796 H   0  0  0  0  0  0  0  0  0  0  0  0
    6.7084  -15.5725   19.9899 H   0  0  0  0  0  0  0  0  0  0  0  0
   -4.9696  -20.2717   22.0447 H   0  0  0  0  0  0  0  0  0  0  0  0
   -5.4110  -22.6149   22.8454 H   0  0  0  0  0  0  0  0  0  0  0  0
   -3.4528  -23.7971   23.8814 H   0  0  0  0  0  0  0  0  0  0  0  0
  1  2  1  0
  2  3  1  0
  3  4  1  0
  4  5  1  0
  5  6  2  0
  5  7  1  0
  7  8  1  0
  8  9  2  0
  9 10  1  0
 10 11  1  0
 11 12  1  0
 11 13  2  0
  3 14  1  0
 14 15  2  0
 15 16  1  0
 16 17  2  0
 17 18  1  0
 18 19  2  0
 13  8  1  0
 19 14  1  0
  1 20  1  0
  1 21  1  0
  1 22  1  0
  2 23  1  0
  2 24  1  0
  3 25  1  0
  4 26  1  0
  7 27  1  0
  7 28  1  0
  9 29  1  0
 10 30  1  0
 12 31  1  0
 12 32  1  0
 12 33  1  0
 16 34  1  0
 17 35  1  0
 18 36  1  0
M  END
>  <Energy>  (915) 
53.040884736564877

>  <compound_id>  (915) 
28736

>  <target_id>  (915) 
1

>  <reference_id>  (915) 
54

>  <inspiration_ids>  (915) 
[80, 54]

>  <energy_score>  (915) 
0.7495379524681312

>  <distance_score>  (915) 
14.12509995421816

>  <path>  (915) 
/opt/xchem-fragalysis-2/maxwin/BulkDock/SCRATCH/511021/C28736-P54/C28736-P54.minimised.mol

>  <scratch_subdir>  (915) 
/opt/xchem-fragalysis-2/maxwin/BulkDock/SCRATCH/511021/C28736-P54

>  <fragmenstein_runtime>  (915) 
24.273237466812134

>  <fragmenstein_outcome>  (915) 
too moved

>  <fragmenstein_mode>  (915) 
expansion

>  <fragmenstein_error>  (915) 


$$$$
C50839-P80
     RDKit          3D

 41 42  0  0  0  0  0  0  0  0999 V2000
   -3.0699  -21.2079   21.0903 C   0  0  0  0  0  0  0  0  0  0  0  0
   -2.2176  -20.3244   22.6674 C   0  0  0  0  0  0  0  0  0  0  0  0
   -1.3310  -18.6247   21.5477 C   0  0  0  0  0  0  0  0  0  0  0  0
   -0.4393  -17.6827   20.0505 N   0  0  0  0  0  0  0  0  0  0  0  0
    0.6941  -16.1958   19.9878 C   0  0  0  0  0  0  0  0  0  0  0  0
    0.8333  -15.6902   21.0146 O   0  0  0  0  0  0  0  0  0  0  0  0
    1.9022  -15.2900   18.6347 C   0  0  0  0  0  0  0  0  0  0  0  0
    2.6874  -15.4834   17.3333 C   0  0  0  0  0  0  0  0  0  0  0  0
    4.0639  -15.1040   17.2685 N   0  0  0  0  0  0  0  0  0  0  0  0
    4.1909  -14.4007   18.3169 C   0  0  0  0  0  0  0  0  0  0  0  0
    2.9260  -14.4359   18.9989 N   0  0  0  0  0  0  0  0  0  0  0  0
   -3.4784  -21.7830   23.1053 C   0  0  0  0  0  0  0  0  0  0  0  0
   -5.2349  -22.0811   23.1111 N   0  0  0  0  0  0  0  0  0  0  0  0
   -6.0961  -23.4956   23.2813 C   0  0  0  0  0  0  0  0  0  0  0  0
   -5.6797  -24.6320   23.3528 O   0  0  0  0  0  0  0  0  0  0  0  0
   -7.9749  -23.3680   23.5387 C   0  0  0  0  0  0  0  0  0  0  0  0
   -8.5187  -22.3295   22.5938 C   0  0  0  0  0  0  0  0  0  0  0  0
   -9.4220  -24.0799   24.4729 N   0  0  0  0  0  0  0  0  0  0  0  0
  -10.8212  -24.1543   24.3613 C   0  0  0  0  0  0  0  0  0  0  0  0
  -11.5936  -23.5283   25.2129 N   0  0  0  0  0  0  0  0  0  0  0  0
  -10.9537  -23.8678   26.3357 C   0  0  0  0  0  0  0  0  0  0  0  0
   -9.6561  -24.1651   26.1487 N   0  0  0  0  0  0  0  0  0  0  0  0
   -2.9455  -20.5893   20.1787 H   0  0  0  0  0  0  0  0  0  0  0  0
   -4.1539  -21.3508   21.1153 H   0  0  0  0  0  0  0  0  0  0  0  0
   -2.5593  -22.1690   20.9074 H   0  0  0  0  0  0  0  0  0  0  0  0
   -1.3664  -20.8826   23.1040 H   0  0  0  0  0  0  0  0  0  0  0  0
   -0.5160  -18.3106   22.1428 H   0  0  0  0  0  0  0  0  0  0  0  0
   -2.1135  -17.9764   21.1374 H   0  0  0  0  0  0  0  0  0  0  0  0
   -0.5745  -18.0142   19.0986 H   0  0  0  0  0  0  0  0  0  0  0  0
    2.3806  -16.0225   16.4223 H   0  0  0  0  0  0  0  0  0  0  0  0
    5.0424  -13.8266   18.6678 H   0  0  0  0  0  0  0  0  0  0  0  0
    3.0185  -14.2717   19.9887 H   0  0  0  0  0  0  0  0  0  0  0  0
   -3.4091  -21.7561   24.1575 H   0  0  0  0  0  0  0  0  0  0  0  0
   -3.0265  -22.7515   22.8408 H   0  0  0  0  0  0  0  0  0  0  0  0
   -5.8770  -21.3062   22.9980 H   0  0  0  0  0  0  0  0  0  0  0  0
   -7.6237  -23.2657   24.5461 H   0  0  0  0  0  0  0  0  0  0  0  0
   -8.4445  -22.7100   21.5697 H   0  0  0  0  0  0  0  0  0  0  0  0
   -7.8867  -21.4411   22.5392 H   0  0  0  0  0  0  0  0  0  0  0  0
   -9.5535  -22.0359   22.7831 H   0  0  0  0  0  0  0  0  0  0  0  0
  -11.0490  -25.2190   24.3650 H   0  0  0  0  0  0  0  0  0  0  0  0
  -11.3717  -23.7887   27.3299 H   0  0  0  0  0  0  0  0  0  0  0  0
  1  2  1  0
  2  3  1  0
  3  4  1  0
  4  5  1  0
  5  6  2  0
  5  7  1  0
  7  8  2  0
  8  9  1  0
  9 10  2  0
 10 11  1  0
  2 12  1  0
 12 13  1  0
 13 14  1  0
 14 15  2  0
 14 16  1  0
 16 17  1  0
 16 18  1  0
 18 19  1  0
 19 20  2  0
 20 21  1  0
 21 22  2  0
 11  7  1  0
 22 18  1  0
  1 23  1  0
  1 24  1  0
  1 25  1  0
  2 26  1  0
  3 27  1  0
  3 28  1  0
  4 29  1  0
  8 30  1  0
 10 31  1  0
 11 32  1  0
 12 33  1  0
 12 34  1  0
 13 35  1  0
 16 36  1  0
 17 37  1  0
 17 38  1  0
 17 39  1  0
 19 40  1  0
 21 41  1  0
M  END
>  <Energy>  (916) 
968.97340773126393

>  <compound_id>  (916) 
50839

>  <target_id>  (916) 
1

>  <reference_id>  (916) 
80

>  <inspiration_ids>  (916) 
[80, 54]

>  <energy_score>  (916) 
963.1317173497273

>  <distance_score>  (916) 
11.39654291191901

>  <path>  (916) 
/opt/xchem-fragalysis-2/maxwin/BulkDock/SCRATCH/511021/C50839-P80/C50839-P80.minimised.mol

>  <scratch_subdir>  (916) 
/opt/xchem-fragalysis-2/maxwin/BulkDock/SCRATCH/511021/C50839-P80

>  <fragmenstein_runtime>  (916) 
33.12398934364319

>  <fragmenstein_outcome>  (916) 
too moved

>  <fragmenstein_mode>  (916) 
expansion

>  <fragmenstein_error>  (916) 


$$$$
C50839-P54
     RDKit          3D

 41 42  0  0  0  0  0  0  0  0999 V2000
   -2.5115  -12.8120   23.4964 C   0  0  0  0  0  0  0  0  0  0  0  0
   -1.6643  -13.7679   22.6552 C   0  0  0  0  0  0  0  0  0  0  0  0
    0.0117  -12.5672   22.0553 C   0  0  0  0  0  0  0  0  0  0  0  0
    1.6654  -11.4451   21.9527 N   0  0  0  0  0  0  0  0  0  0  0  0
    3.3969  -11.7574   22.5882 C   0  0  0  0  0  0  0  0  0  0  0  0
    3.7363  -12.7829   23.0901 O   0  0  0  0  0  0  0  0  0  0  0  0
    4.8212  -10.5136   22.6928 C   0  0  0  0  0  0  0  0  0  0  0  0
    5.7842   -9.8252   21.8604 C   0  0  0  0  0  0  0  0  0  0  0  0
    6.6102   -8.9334   22.5067 N   0  0  0  0  0  0  0  0  0  0  0  0
    6.2827   -9.0571   23.7558 C   0  0  0  0  0  0  0  0  0  0  0  0
    5.2987   -9.9880   23.9179 N   0  0  0  0  0  0  0  0  0  0  0  0
   -2.2519  -15.4991   23.9071 C   0  0  0  0  0  0  0  0  0  0  0  0
   -2.6457  -17.2963   24.5079 N   0  0  0  0  0  0  0  0  0  0  0  0
   -4.1701  -18.4007   24.2080 C   0  0  0  0  0  0  0  0  0  0  0  0
   -5.0513  -18.0616   23.4668 O   0  0  0  0  0  0  0  0  0  0  0  0
   -4.6377  -19.8875   24.9975 C   0  0  0  0  0  0  0  0  0  0  0  0
   -5.3385  -21.7505   24.5221 C   0  0  0  0  0  0  0  0  0  0  0  0
   -5.0996  -20.0024   26.5701 N   0  0  0  0  0  0  0  0  0  0  0  0
   -4.7949  -20.9657   27.4443 C   0  0  0  0  0  0  0  0  0  0  0  0
   -5.8633  -21.3751   28.0794 N   0  0  0  0  0  0  0  0  0  0  0  0
   -6.7810  -20.5757   27.6402 C   0  0  0  0  0  0  0  0  0  0  0  0
   -6.2136  -19.4979   27.1599 N   0  0  0  0  0  0  0  0  0  0  0  0
   -2.5838  -11.7690   23.2241 H   0  0  0  0  0  0  0  0  0  0  0  0
   -2.4024  -12.8207   24.5835 H   0  0  0  0  0  0  0  0  0  0  0  0
   -3.3314  -13.4608   23.2323 H   0  0  0  0  0  0  0  0  0  0  0  0
   -2.1603  -13.8300   21.7262 H   0  0  0  0  0  0  0  0  0  0  0  0
    0.1282  -12.0330   22.9935 H   0  0  0  0  0  0  0  0  0  0  0  0
    0.7281  -13.0890   21.4078 H   0  0  0  0  0  0  0  0  0  0  0  0
    1.5880  -10.4920   21.6501 H   0  0  0  0  0  0  0  0  0  0  0  0
    5.9360   -9.8281   20.7971 H   0  0  0  0  0  0  0  0  0  0  0  0
    6.7100   -8.5110   24.5866 H   0  0  0  0  0  0  0  0  0  0  0  0
    4.8007  -10.1686   24.7743 H   0  0  0  0  0  0  0  0  0  0  0  0
   -2.8196  -15.0394   24.7201 H   0  0  0  0  0  0  0  0  0  0  0  0
   -1.3244  -15.7464   24.5196 H   0  0  0  0  0  0  0  0  0  0  0  0
   -2.0705  -17.7127   25.2158 H   0  0  0  0  0  0  0  0  0  0  0  0
   -5.1158  -19.9250   24.0598 H   0  0  0  0  0  0  0  0  0  0  0  0
   -5.6389  -21.8967   23.4608 H   0  0  0  0  0  0  0  0  0  0  0  0
   -6.1845  -21.9614   25.1720 H   0  0  0  0  0  0  0  0  0  0  0  0
   -4.6721  -22.6171   24.6595 H   0  0  0  0  0  0  0  0  0  0  0  0
   -3.8245  -21.4119   27.5726 H   0  0  0  0  0  0  0  0  0  0  0  0
   -7.8167  -20.7059   27.8447 H   0  0  0  0  0  0  0  0  0  0  0  0
  1  2  1  0
  2  3  1  0
  3  4  1  0
  4  5  1  0
  5  6  2  0
  5  7  1  0
  7  8  2  0
  8  9  1  0
  9 10  2  0
 10 11  1  0
  2 12  1  0
 12 13  1  0
 13 14  1  0
 14 15  2  0
 14 16  1  0
 16 17  1  0
 16 18  1  0
 18 19  1  0
 19 20  2  0
 20 21  1  0
 21 22  2  0
 11  7  1  0
 22 18  1  0
  1 23  1  0
  1 24  1  0
  1 25  1  0
  2 26  1  0
  3 27  1  0
  3 28  1  0
  4 29  1  0
  8 30  1  0
 10 31  1  0
 11 32  1  0
 12 33  1  0
 12 34  1  0
 13 35  1  0
 16 36  1  0
 17 37  1  0
 17 38  1  0
 17 39  1  0
 19 40  1  0
 21 41  1  0
M  END
>  <Energy>  (917) 
1002.9965477065659

>  <compound_id>  (917) 
50839

>  <target_id>  (917) 
1

>  <reference_id>  (917) 
54

>  <inspiration_ids>  (917) 
[80, 54]

>  <energy_score>  (917) 
997.1548573250335

>  <distance_score>  (917) 
9.872745310438996

>  <path>  (917) 
/opt/xchem-fragalysis-2/maxwin/BulkDock/SCRATCH/511021/C50839-P54/C50839-P54.minimised.mol

>  <scratch_subdir>  (917) 
/opt/xchem-fragalysis-2/maxwin/BulkDock/SCRATCH/511021/C50839-P54

>  <fragmenstein_runtime>  (917) 
22.4470317363739

>  <fragmenstein_outcome>  (917) 
too moved

>  <fragmenstein_mode>  (917) 
expansion

>  <fragmenstein_error>  (917) 


$$$$
C50840-P80
     RDKit          3D

 44 45  0  0  0  0  0  0  0  0999 V2000
    3.7569  -13.3504   18.5197 C   0  0  0  0  0  0  0  0  0  0  0  0
    3.9418  -13.2248   20.0203 C   0  0  0  0  0  0  0  0  0  0  0  0
    2.4690  -14.6698   19.9904 C   0  0  0  0  0  0  0  0  0  0  0  0
    1.0197  -15.7546   20.5600 N   0  0  0  0  0  0  0  0  0  0  0  0
    0.3604  -16.9983   19.9085 C   0  0  0  0  0  0  0  0  0  0  0  0
    0.6813  -17.6409   18.9043 O   0  0  0  0  0  0  0  0  0  0  0  0
   -0.9809  -17.4615   20.5149 C   0  0  0  0  0  0  0  0  0  0  0  0
   -2.1780  -17.8263   19.4193 C   0  0  0  0  0  0  0  0  0  0  0  0
   -3.5173  -18.4187   19.3805 N   0  0  0  0  0  0  0  0  0  0  0  0
   -4.6057  -17.9238   18.6942 C   0  0  0  0  0  0  0  0  0  0  0  0
   -5.6801  -18.6448   18.9189 N   0  0  0  0  0  0  0  0  0  0  0  0
   -5.1709  -19.7191   19.5698 C   0  0  0  0  0  0  0  0  0  0  0  0
   -3.8511  -19.6650   19.7690 N   0  0  0  0  0  0  0  0  0  0  0  0
    5.7330  -12.7012   19.8972 C   0  0  0  0  0  0  0  0  0  0  0  0
    6.2083  -11.1069   19.9984 N   0  0  0  0  0  0  0  0  0  0  0  0
    7.7198  -10.2633   19.4702 C   0  0  0  0  0  0  0  0  0  0  0  0
    8.6795  -10.6888   18.8471 O   0  0  0  0  0  0  0  0  0  0  0  0
    8.0027   -8.4423   19.9319 C   0  0  0  0  0  0  0  0  0  0  0  0
    7.1306   -7.2455   19.9659 C   0  0  0  0  0  0  0  0  0  0  0  0
    7.6858   -6.0755   20.4243 N   0  0  0  0  0  0  0  0  0  0  0  0
    8.8480   -6.4118   20.8976 C   0  0  0  0  0  0  0  0  0  0  0  0
    9.1655   -7.7307   20.6471 N   0  0  0  0  0  0  0  0  0  0  0  0
   10.3419   -8.2945   21.3299 C   0  0  0  0  0  0  0  0  0  0  0  0
    2.7716  -13.6719   18.1675 H   0  0  0  0  0  0  0  0  0  0  0  0
    3.8535  -12.3930   18.0178 H   0  0  0  0  0  0  0  0  0  0  0  0
    4.2884  -14.2595   18.1941 H   0  0  0  0  0  0  0  0  0  0  0  0
    3.6932  -12.7582   20.9574 H   0  0  0  0  0  0  0  0  0  0  0  0
    2.6699  -14.6047   21.0292 H   0  0  0  0  0  0  0  0  0  0  0  0
    2.6945  -15.1170   19.0280 H   0  0  0  0  0  0  0  0  0  0  0  0
    0.5450  -15.5416   21.4213 H   0  0  0  0  0  0  0  0  0  0  0  0
   -0.8794  -18.1021   21.3653 H   0  0  0  0  0  0  0  0  0  0  0  0
   -1.2822  -16.4452   20.6667 H   0  0  0  0  0  0  0  0  0  0  0  0
   -2.4416  -16.7989   19.1337 H   0  0  0  0  0  0  0  0  0  0  0  0
   -1.6862  -18.2647   18.5598 H   0  0  0  0  0  0  0  0  0  0  0  0
   -4.5482  -17.0512   18.0636 H   0  0  0  0  0  0  0  0  0  0  0  0
   -5.7584  -20.5668   19.8982 H   0  0  0  0  0  0  0  0  0  0  0  0
    5.9947  -13.2677   19.0839 H   0  0  0  0  0  0  0  0  0  0  0  0
    6.2154  -13.0432   20.7749 H   0  0  0  0  0  0  0  0  0  0  0  0
    5.6648  -10.5254   20.5512 H   0  0  0  0  0  0  0  0  0  0  0  0
    6.1338   -7.1757   19.5614 H   0  0  0  0  0  0  0  0  0  0  0  0
    9.5311   -5.7440   21.4117 H   0  0  0  0  0  0  0  0  0  0  0  0
   10.6863   -9.1687   20.7787 H   0  0  0  0  0  0  0  0  0  0  0  0
   10.0655   -8.5302   22.3620 H   0  0  0  0  0  0  0  0  0  0  0  0
   11.1313   -7.5395   21.3951 H   0  0  0  0  0  0  0  0  0  0  0  0
  1  2  1  0
  2  3  1  0
  3  4  1  0
  4  5  1  0
  5  6  2  0
  5  7  1  0
  7  8  1  0
  8  9  1  0
  9 10  1  0
 10 11  2  0
 11 12  1  0
 12 13  2  0
  2 14  1  0
 14 15  1  0
 15 16  1  0
 16 17  2  0
 16 18  1  0
 18 19  2  0
 19 20  1  0
 20 21  2  0
 21 22  1  0
 22 23  1  0
 13  9  1  0
 22 18  1  0
  1 24  1  0
  1 25  1  0
  1 26  1  0
  2 27  1  0
  3 28  1  0
  3 29  1  0
  4 30  1  0
  7 31  1  0
  7 32  1  0
  8 33  1  0
  8 34  1  0
 10 35  1  0
 12 36  1  0
 14 37  1  0
 14 38  1  0
 15 39  1  0
 19 40  1  0
 21 41  1  0
 23 42  1  0
 23 43  1  0
 23 44  1  0
M  END
>  <Energy>  (918) 
473.17884014381787

>  <compound_id>  (918) 
50840

>  <target_id>  (918) 
1

>  <reference_id>  (918) 
80

>  <inspiration_ids>  (918) 
[80, 54]

>  <energy_score>  (918) 
505.66859465341423

>  <distance_score>  (918) 
11.361458981595582

>  <path>  (918) 
/opt/xchem-fragalysis-2/maxwin/BulkDock/SCRATCH/511021/C50840-P80/C50840-P80.minimised.mol

>  <scratch_subdir>  (918) 
/opt/xchem-fragalysis-2/maxwin/BulkDock/SCRATCH/511021/C50840-P80

>  <fragmenstein_runtime>  (918) 
26.88367795944214

>  <fragmenstein_outcome>  (918) 
too moved

>  <fragmenstein_mode>  (918) 
expansion

>  <fragmenstein_error>  (918) 


$$$$
C50840-P54
     RDKit          3D

 44 45  0  0  0  0  0  0  0  0999 V2000
    1.9730  -13.8675   16.4441 C   0  0  0  0  0  0  0  0  0  0  0  0
    1.6912  -13.3863   18.0111 C   0  0  0  0  0  0  0  0  0  0  0  0
    0.3164  -14.9814   18.5652 C   0  0  0  0  0  0  0  0  0  0  0  0
   -0.2472  -16.3955   19.7164 N   0  0  0  0  0  0  0  0  0  0  0  0
   -1.6361  -17.1146   19.8757 C   0  0  0  0  0  0  0  0  0  0  0  0
   -2.6479  -16.9711   19.2058 O   0  0  0  0  0  0  0  0  0  0  0  0
   -1.8124  -18.3492   21.5727 C   0  0  0  0  0  0  0  0  0  0  0  0
   -2.3397  -19.7377   22.6071 C   0  0  0  0  0  0  0  0  0  0  0  0
   -3.1887  -20.9003   22.3074 N   0  0  0  0  0  0  0  0  0  0  0  0
   -4.2102  -21.3584   23.1057 C   0  0  0  0  0  0  0  0  0  0  0  0
   -4.6201  -22.5389   22.7237 N   0  0  0  0  0  0  0  0  0  0  0  0
   -3.7739  -22.8049   21.6932 C   0  0  0  0  0  0  0  0  0  0  0  0
   -2.8319  -21.8817   21.4585 N   0  0  0  0  0  0  0  0  0  0  0  0
    3.2714  -11.8250   17.9471 C   0  0  0  0  0  0  0  0  0  0  0  0
    5.2227  -11.2895   18.3579 N   0  0  0  0  0  0  0  0  0  0  0  0
    5.9848   -9.9767   19.6391 C   0  0  0  0  0  0  0  0  0  0  0  0
    5.2439   -9.2246   20.2610 O   0  0  0  0  0  0  0  0  0  0  0  0
    7.6736   -9.7980   20.2752 C   0  0  0  0  0  0  0  0  0  0  0  0
    8.8663   -8.9351   20.2020 C   0  0  0  0  0  0  0  0  0  0  0  0
    9.8581   -9.2977   21.0507 N   0  0  0  0  0  0  0  0  0  0  0  0
    9.2226   -9.9948   21.9457 C   0  0  0  0  0  0  0  0  0  0  0  0
    7.8841  -10.0545   21.6561 N   0  0  0  0  0  0  0  0  0  0  0  0
    6.9117  -10.0470   22.7229 C   0  0  0  0  0  0  0  0  0  0  0  0
    1.0807  -13.8216   15.8286 H   0  0  0  0  0  0  0  0  0  0  0  0
    2.3827  -14.8312   16.3611 H   0  0  0  0  0  0  0  0  0  0  0  0
    2.7212  -13.2350   15.9826 H   0  0  0  0  0  0  0  0  0  0  0  0
    2.0696  -13.3873   19.0178 H   0  0  0  0  0  0  0  0  0  0  0  0
   -0.7636  -15.1215   18.3404 H   0  0  0  0  0  0  0  0  0  0  0  0
    0.1610  -15.4429   17.6072 H   0  0  0  0  0  0  0  0  0  0  0  0
    0.3871  -16.7928   20.3476 H   0  0  0  0  0  0  0  0  0  0  0  0
   -1.1041  -18.0287   22.2882 H   0  0  0  0  0  0  0  0  0  0  0  0
   -2.1926  -19.2369   21.0602 H   0  0  0  0  0  0  0  0  0  0  0  0
   -1.4102  -20.2220   22.9295 H   0  0  0  0  0  0  0  0  0  0  0  0
   -2.8472  -19.2738   23.4301 H   0  0  0  0  0  0  0  0  0  0  0  0
   -4.5711  -20.8008   23.9476 H   0  0  0  0  0  0  0  0  0  0  0  0
   -3.8238  -23.7122   21.1049 H   0  0  0  0  0  0  0  0  0  0  0  0
    3.3916  -11.6335   16.8904 H   0  0  0  0  0  0  0  0  0  0  0  0
    2.8898  -11.1291   18.6788 H   0  0  0  0  0  0  0  0  0  0  0  0
    5.9665  -11.7512   17.8864 H   0  0  0  0  0  0  0  0  0  0  0  0
    9.1002   -8.1373   19.5033 H   0  0  0  0  0  0  0  0  0  0  0  0
    9.6428  -10.3814   22.8667 H   0  0  0  0  0  0  0  0  0  0  0  0
    7.1710  -10.8479   23.4158 H   0  0  0  0  0  0  0  0  0  0  0  0
    5.9036  -10.1807   22.3496 H   0  0  0  0  0  0  0  0  0  0  0  0
    6.9775   -9.0820   23.2339 H   0  0  0  0  0  0  0  0  0  0  0  0
  1  2  1  0
  2  3  1  0
  3  4  1  0
  4  5  1  0
  5  6  2  0
  5  7  1  0
  7  8  1  0
  8  9  1  0
  9 10  1  0
 10 11  2  0
 11 12  1  0
 12 13  2  0
  2 14  1  0
 14 15  1  0
 15 16  1  0
 16 17  2  0
 16 18  1  0
 18 19  2  0
 19 20  1  0
 20 21  2  0
 21 22  1  0
 22 23  1  0
 13  9  1  0
 22 18  1  0
  1 24  1  0
  1 25  1  0
  1 26  1  0
  2 27  1  0
  3 28  1  0
  3 29  1  0
  4 30  1  0
  7 31  1  0
  7 32  1  0
  8 33  1  0
  8 34  1  0
 10 35  1  0
 12 36  1  0
 14 37  1  0
 14 38  1  0
 15 39  1  0
 19 40  1  0
 21 41  1  0
 23 42  1  0
 23 43  1  0
 23 44  1  0
M  END
>  <Energy>  (919) 
960.22904882496994

>  <compound_id>  (919) 
50840

>  <target_id>  (919) 
1

>  <reference_id>  (919) 
54

>  <inspiration_ids>  (919) 
[80, 54]

>  <energy_score>  (919) 
992.7188033345886

>  <distance_score>  (919) 
10.780351792657637

>  <path>  (919) 
/opt/xchem-fragalysis-2/maxwin/BulkDock/SCRATCH/511021/C50840-P54/C50840-P54.minimised.mol

>  <scratch_subdir>  (919) 
/opt/xchem-fragalysis-2/maxwin/BulkDock/SCRATCH/511021/C50840-P54

>  <fragmenstein_runtime>  (919) 
35.09024977684021

>  <fragmenstein_outcome>  (919) 
too moved

>  <fragmenstein_mode>  (919) 
expansion

>  <fragmenstein_error>  (919) 


$$$$
C50841-P80
     RDKit          3D

 44 45  0  0  0  0  0  0  0  0999 V2000
   -1.3647  -12.9620   20.9244 C   0  0  0  0  0  0  0  0  0  0  0  0
   -0.0029  -14.1736   22.1181 C   0  0  0  0  0  0  0  0  0  0  0  0
    1.8750  -14.5332   20.9430 C   0  0  0  0  0  0  0  0  0  0  0  0
    3.4461  -13.4580   20.6136 N   0  0  0  0  0  0  0  0  0  0  0  0
    4.0883  -12.4153   21.4012 C   0  0  0  0  0  0  0  0  0  0  0  0
    3.7420  -11.8882   22.4394 O   0  0  0  0  0  0  0  0  0  0  0  0
    5.7447  -11.9054   20.8127 C   0  0  0  0  0  0  0  0  0  0  0  0
    6.3038  -11.3564   19.6849 C   0  0  0  0  0  0  0  0  0  0  0  0
    7.6610  -10.8931   19.7765 N   0  0  0  0  0  0  0  0  0  0  0  0
    8.1473  -11.4550   20.8315 C   0  0  0  0  0  0  0  0  0  0  0  0
    7.0849  -11.7027   21.6636 N   0  0  0  0  0  0  0  0  0  0  0  0
    7.3083  -11.3887   23.1322 C   0  0  0  0  0  0  0  0  0  0  0  0
   -1.3190  -14.8849   23.3741 C   0  0  0  0  0  0  0  0  0  0  0  0
   -3.1372  -15.1101   23.7361 N   0  0  0  0  0  0  0  0  0  0  0  0
   -3.7912  -15.7373   24.7705 C   0  0  0  0  0  0  0  0  0  0  0  0
   -3.3073  -16.3300   25.6668 O   0  0  0  0  0  0  0  0  0  0  0  0
   -5.9393  -15.7404   24.5963 C   0  0  0  0  0  0  0  0  0  0  0  0
   -7.1666  -14.3461   24.3275 C   0  0  0  0  0  0  0  0  0  0  0  0
   -7.1968  -16.0799   25.8728 N   0  0  0  0  0  0  0  0  0  0  0  0
   -8.5007  -16.4267   25.5387 C   0  0  0  0  0  0  0  0  0  0  0  0
   -9.2632  -16.4334   26.6058 N   0  0  0  0  0  0  0  0  0  0  0  0
   -8.4225  -16.0086   27.5799 C   0  0  0  0  0  0  0  0  0  0  0  0
   -7.2292  -15.6076   27.1476 N   0  0  0  0  0  0  0  0  0  0  0  0
   -2.0889  -13.7094   20.6526 H   0  0  0  0  0  0  0  0  0  0  0  0
   -1.1589  -12.1851   20.1153 H   0  0  0  0  0  0  0  0  0  0  0  0
   -1.7941  -12.0374   21.3793 H   0  0  0  0  0  0  0  0  0  0  0  0
    0.0265  -15.3488   21.9092 H   0  0  0  0  0  0  0  0  0  0  0  0
    2.8033  -14.5475   21.7043 H   0  0  0  0  0  0  0  0  0  0  0  0
    1.8530  -15.3369   20.2763 H   0  0  0  0  0  0  0  0  0  0  0  0
    4.0616  -13.7166   19.8437 H   0  0  0  0  0  0  0  0  0  0  0  0
    5.8202  -11.1692   18.7605 H   0  0  0  0  0  0  0  0  0  0  0  0
    9.1820  -11.4767   21.1434 H   0  0  0  0  0  0  0  0  0  0  0  0
    6.3906  -11.0181   23.5806 H   0  0  0  0  0  0  0  0  0  0  0  0
    7.7161  -12.2161   23.7098 H   0  0  0  0  0  0  0  0  0  0  0  0
    8.0963  -10.6288   23.2187 H   0  0  0  0  0  0  0  0  0  0  0  0
   -0.9436  -14.4081   24.2767 H   0  0  0  0  0  0  0  0  0  0  0  0
   -1.7396  -14.7348   22.4253 H   0  0  0  0  0  0  0  0  0  0  0  0
   -3.8078  -14.6385   23.1998 H   0  0  0  0  0  0  0  0  0  0  0  0
   -6.3926  -16.6415   24.1035 H   0  0  0  0  0  0  0  0  0  0  0  0
   -8.0730  -14.7171   23.8384 H   0  0  0  0  0  0  0  0  0  0  0  0
   -7.4986  -13.9017   25.2822 H   0  0  0  0  0  0  0  0  0  0  0  0
   -6.7161  -13.4792   23.8183 H   0  0  0  0  0  0  0  0  0  0  0  0
   -8.7991  -16.6739   24.5294 H   0  0  0  0  0  0  0  0  0  0  0  0
   -8.6987  -15.9284   28.6215 H   0  0  0  0  0  0  0  0  0  0  0  0
  1  2  1  0
  2  3  1  0
  3  4  1  0
  4  5  1  0
  5  6  2  0
  5  7  1  0
  7  8  2  0
  8  9  1  0
  9 10  2  0
 10 11  1  0
 11 12  1  0
  2 13  1  0
 13 14  1  0
 14 15  1  0
 15 16  2  0
 15 17  1  0
 17 18  1  0
 17 19  1  0
 19 20  1  0
 20 21  2  0
 21 22  1  0
 22 23  2  0
 11  7  1  0
 23 19  1  0
  1 24  1  0
  1 25  1  0
  1 26  1  0
  2 27  1  0
  3 28  1  0
  3 29  1  0
  4 30  1  0
  8 31  1  0
 10 32  1  0
 12 33  1  0
 12 34  1  0
 12 35  1  0
 13 36  1  0
 13 37  1  0
 14 38  1  0
 17 39  1  0
 18 40  1  0
 18 41  1  0
 18 42  1  0
 20 43  1  0
 22 44  1  0
M  END
>  <Energy>  (920) 
863.71123524987274

>  <compound_id>  (920) 
50841

>  <target_id>  (920) 
1

>  <reference_id>  (920) 
80

>  <inspiration_ids>  (920) 
[80, 54]

>  <energy_score>  (920) 
850.5033628085191

>  <distance_score>  (920) 
10.672843692111497

>  <path>  (920) 
/opt/xchem-fragalysis-2/maxwin/BulkDock/SCRATCH/511021/C50841-P80/C50841-P80.minimised.mol

>  <scratch_subdir>  (920) 
/opt/xchem-fragalysis-2/maxwin/BulkDock/SCRATCH/511021/C50841-P80

>  <fragmenstein_runtime>  (920) 
26.39128875732422

>  <fragmenstein_outcome>  (920) 
too moved

>  <fragmenstein_mode>  (920) 
expansion

>  <fragmenstein_error>  (920) 


$$$$
C50841-P54
     RDKit          3D

 44 45  0  0  0  0  0  0  0  0999 V2000
    4.2897  -11.9704   23.9415 C   0  0  0  0  0  0  0  0  0  0  0  0
    3.6236  -13.0169   22.9914 C   0  0  0  0  0  0  0  0  0  0  0  0
    2.7544  -12.1425   21.2122 C   0  0  0  0  0  0  0  0  0  0  0  0
    2.8366  -11.3812   19.2725 N   0  0  0  0  0  0  0  0  0  0  0  0
    4.3073  -11.2269   18.0147 C   0  0  0  0  0  0  0  0  0  0  0  0
    5.3747  -11.5229   18.3868 O   0  0  0  0  0  0  0  0  0  0  0  0
    4.3987  -10.9080   16.5436 C   0  0  0  0  0  0  0  0  0  0  0  0
    4.8741  -10.0276   15.4085 C   0  0  0  0  0  0  0  0  0  0  0  0
    5.9017   -9.1292   15.6141 N   0  0  0  0  0  0  0  0  0  0  0  0
    6.6719   -9.9092   16.2927 C   0  0  0  0  0  0  0  0  0  0  0  0
    6.0294  -11.1227   16.2777 N   0  0  0  0  0  0  0  0  0  0  0  0
    6.8121  -12.3493   16.3220 C   0  0  0  0  0  0  0  0  0  0  0  0
    3.0129  -14.5278   24.4952 C   0  0  0  0  0  0  0  0  0  0  0  0
    1.4045  -15.1116   25.5139 N   0  0  0  0  0  0  0  0  0  0  0  0
   -0.0240  -16.2469   25.0475 C   0  0  0  0  0  0  0  0  0  0  0  0
   -0.0762  -16.6458   23.9467 O   0  0  0  0  0  0  0  0  0  0  0  0
   -1.3721  -17.0568   26.0672 C   0  0  0  0  0  0  0  0  0  0  0  0
   -0.8606  -18.2472   27.4647 C   0  0  0  0  0  0  0  0  0  0  0  0
   -2.8205  -18.0050   25.8292 N   0  0  0  0  0  0  0  0  0  0  0  0
   -3.7536  -18.3444   26.8587 C   0  0  0  0  0  0  0  0  0  0  0  0
   -4.6120  -19.2723   26.4983 N   0  0  0  0  0  0  0  0  0  0  0  0
   -4.2366  -19.5370   25.2300 C   0  0  0  0  0  0  0  0  0  0  0  0
   -3.1295  -18.9116   24.8065 N   0  0  0  0  0  0  0  0  0  0  0  0
    5.0477  -12.3503   24.6269 H   0  0  0  0  0  0  0  0  0  0  0  0
    4.8009  -11.1741   23.4018 H   0  0  0  0  0  0  0  0  0  0  0  0
    3.5463  -11.6085   24.6551 H   0  0  0  0  0  0  0  0  0  0  0  0
    4.3973  -13.5852   22.4536 H   0  0  0  0  0  0  0  0  0  0  0  0
    2.3579  -13.0748   20.8871 H   0  0  0  0  0  0  0  0  0  0  0  0
    1.9674  -11.4723   21.5586 H   0  0  0  0  0  0  0  0  0  0  0  0
    2.0004  -11.1839   18.8069 H   0  0  0  0  0  0  0  0  0  0  0  0
    4.2833   -9.8801   14.5027 H   0  0  0  0  0  0  0  0  0  0  0  0
    7.6859   -9.7431   16.6290 H   0  0  0  0  0  0  0  0  0  0  0  0
    6.1826  -13.2343   16.3690 H   0  0  0  0  0  0  0  0  0  0  0  0
    7.3962  -12.3891   15.3967 H   0  0  0  0  0  0  0  0  0  0  0  0
    7.5059  -12.2969   17.1647 H   0  0  0  0  0  0  0  0  0  0  0  0
    3.5714  -14.2620   25.4027 H   0  0  0  0  0  0  0  0  0  0  0  0
    2.8731  -15.5168   23.9721 H   0  0  0  0  0  0  0  0  0  0  0  0
    1.3571  -14.9224   26.5086 H   0  0  0  0  0  0  0  0  0  0  0  0
   -2.0026  -16.1561   26.1122 H   0  0  0  0  0  0  0  0  0  0  0  0
   -0.3613  -17.7332   28.3150 H   0  0  0  0  0  0  0  0  0  0  0  0
   -0.1513  -19.0314   27.2568 H   0  0  0  0  0  0  0  0  0  0  0  0
   -1.7187  -18.7619   27.9078 H   0  0  0  0  0  0  0  0  0  0  0  0
   -3.7421  -17.9120   27.8428 H   0  0  0  0  0  0  0  0  0  0  0  0
   -4.7457  -20.2511   24.5946 H   0  0  0  0  0  0  0  0  0  0  0  0
  1  2  1  0
  2  3  1  0
  3  4  1  0
  4  5  1  0
  5  6  2  0
  5  7  1  0
  7  8  2  0
  8  9  1  0
  9 10  2  0
 10 11  1  0
 11 12  1  0
  2 13  1  0
 13 14  1  0
 14 15  1  0
 15 16  2  0
 15 17  1  0
 17 18  1  0
 17 19  1  0
 19 20  1  0
 20 21  2  0
 21 22  1  0
 22 23  2  0
 11  7  1  0
 23 19  1  0
  1 24  1  0
  1 25  1  0
  1 26  1  0
  2 27  1  0
  3 28  1  0
  3 29  1  0
  4 30  1  0
  8 31  1  0
 10 32  1  0
 12 33  1  0
 12 34  1  0
 12 35  1  0
 13 36  1  0
 13 37  1  0
 14 38  1  0
 17 39  1  0
 18 40  1  0
 18 41  1  0
 18 42  1  0
 20 43  1  0
 22 44  1  0
M  END
>  <Energy>  (921) 
954.07774974483243

>  <compound_id>  (921) 
50841

>  <target_id>  (921) 
1

>  <reference_id>  (921) 
54

>  <inspiration_ids>  (921) 
[80, 54]

>  <energy_score>  (921) 
940.8698773035001

>  <distance_score>  (921) 
10.794038457478802

>  <path>  (921) 
/opt/xchem-fragalysis-2/maxwin/BulkDock/SCRATCH/511021/C50841-P54/C50841-P54.minimised.mol

>  <scratch_subdir>  (921) 
/opt/xchem-fragalysis-2/maxwin/BulkDock/SCRATCH/511021/C50841-P54

>  <fragmenstein_runtime>  (921) 
23.912168979644775

>  <fragmenstein_outcome>  (921) 
too moved

>  <fragmenstein_mode>  (921) 
expansion

>  <fragmenstein_error>  (921) 


$$$$
C28737-P80
     RDKit          3D

 42 44  0  0  0  0  0  0  0  0999 V2000
    0.5045  -14.4100   24.2610 O   0  0  0  0  0  0  0  0  0  0  0  0
    0.9736  -13.6806   25.0537 C   0  0  0  0  0  0  0  0  0  0  0  0
    2.4659  -12.7591   24.2540 C   0  0  0  0  0  0  0  0  0  0  0  0
    3.3566  -12.3650   22.6339 C   0  0  0  0  0  0  0  0  0  0  0  0
    3.5700  -13.0706   21.3412 C   0  0  0  0  0  0  0  0  0  0  0  0
    4.6099  -12.7747   20.4270 N   0  0  0  0  0  0  0  0  0  0  0  0
    5.2127  -11.7753   20.9355 C   0  0  0  0  0  0  0  0  0  0  0  0
    4.3545  -11.3040   22.2201 N   0  0  0  0  0  0  0  0  0  0  0  0
    0.4707  -13.5659   26.6160 N   0  0  0  0  0  0  0  0  0  0  0  0
   -0.9290  -14.6684   27.6862 C   0  0  0  0  0  0  0  0  0  0  0  0
   -1.8223  -15.0893   29.3162 C   0  0  0  0  0  0  0  0  0  0  0  0
   -2.4476  -16.3510   29.9927 C   0  0  0  0  0  0  0  0  0  0  0  0
   -3.5418  -17.2463   29.4358 C   0  0  0  0  0  0  0  0  0  0  0  0
   -4.2897  -17.7531   30.6937 C   0  0  0  0  0  0  0  0  0  0  0  0
   -4.1300  -16.7210   31.6775 N   0  0  0  0  0  0  0  0  0  0  0  0
   -5.1976  -16.3621   32.4641 C   0  0  0  0  0  0  0  0  0  0  0  0
   -5.3003  -15.1169   32.9452 N   0  0  0  0  0  0  0  0  0  0  0  0
   -6.3311  -14.8518   33.7820 C   0  0  0  0  0  0  0  0  0  0  0  0
   -7.2334  -15.7836   34.2302 C   0  0  0  0  0  0  0  0  0  0  0  0
   -7.0318  -17.0345   33.7340 C   0  0  0  0  0  0  0  0  0  0  0  0
   -6.0798  -17.3121   32.8163 N   0  0  0  0  0  0  0  0  0  0  0  0
   -3.1226  -15.7782   31.3054 C   0  0  0  0  0  0  0  0  0  0  0  0
    3.3051  -13.3735   24.5822 H   0  0  0  0  0  0  0  0  0  0  0  0
    2.1429  -11.7758   24.4067 H   0  0  0  0  0  0  0  0  0  0  0  0
    3.0128  -13.9496   21.1015 H   0  0  0  0  0  0  0  0  0  0  0  0
    6.1874  -11.3635   20.7305 H   0  0  0  0  0  0  0  0  0  0  0  0
    4.8753  -10.6469   22.7838 H   0  0  0  0  0  0  0  0  0  0  0  0
    0.9298  -12.8602   27.0178 H   0  0  0  0  0  0  0  0  0  0  0  0
   -1.7831  -14.9478   27.0356 H   0  0  0  0  0  0  0  0  0  0  0  0
   -0.4694  -15.4723   28.3129 H   0  0  0  0  0  0  0  0  0  0  0  0
   -1.0117  -15.0135   30.0732 H   0  0  0  0  0  0  0  0  0  0  0  0
   -2.5223  -14.2874   29.5290 H   0  0  0  0  0  0  0  0  0  0  0  0
   -1.6246  -17.0141   30.2992 H   0  0  0  0  0  0  0  0  0  0  0  0
   -3.1258  -18.0748   28.8537 H   0  0  0  0  0  0  0  0  0  0  0  0
   -4.2409  -16.7314   28.7836 H   0  0  0  0  0  0  0  0  0  0  0  0
   -3.8438  -18.6804   31.0636 H   0  0  0  0  0  0  0  0  0  0  0  0
   -5.3402  -17.9033   30.4753 H   0  0  0  0  0  0  0  0  0  0  0  0
   -6.3893  -13.8190   34.1130 H   0  0  0  0  0  0  0  0  0  0  0  0
   -8.0223  -15.5502   34.9283 H   0  0  0  0  0  0  0  0  0  0  0  0
   -7.6301  -17.8839   34.0445 H   0  0  0  0  0  0  0  0  0  0  0  0
   -3.5739  -14.7952   31.1294 H   0  0  0  0  0  0  0  0  0  0  0  0
   -2.3713  -15.6682   32.0963 H   0  0  0  0  0  0  0  0  0  0  0  0
  1  2  2  0
  2  3  1  0
  3  4  1  0
  4  5  2  0
  5  6  1  0
  6  7  2  0
  7  8  1  0
  2  9  1  0
  9 10  1  0
 10 11  1  0
 11 12  1  0
 12 13  1  0
 13 14  1  0
 14 15  1  0
 15 16  1  0
 16 17  2  0
 17 18  1  0
 18 19  2  0
 19 20  1  0
 20 21  2  0
 15 22  1  0
  8  4  1  0
 22 12  1  0
 21 16  1  0
  3 23  1  0
  3 24  1  0
  5 25  1  0
  7 26  1  0
  8 27  1  0
  9 28  1  0
 10 29  1  0
 10 30  1  0
 11 31  1  0
 11 32  1  0
 12 33  1  0
 13 34  1  0
 13 35  1  0
 14 36  1  0
 14 37  1  0
 18 38  1  0
 19 39  1  0
 20 40  1  0
 22 41  1  0
 22 42  1  0
M  END
>  <Energy>  (922) 
403.25542776662314

>  <compound_id>  (922) 
28737

>  <target_id>  (922) 
1

>  <reference_id>  (922) 
80

>  <inspiration_ids>  (922) 
[80, 54]

>  <energy_score>  (922) 
439.27922212310006

>  <distance_score>  (922) 
11.849332554329566

>  <path>  (922) 
/opt/xchem-fragalysis-2/maxwin/BulkDock/SCRATCH/511021/C28737-P80/C28737-P80.minimised.mol

>  <scratch_subdir>  (922) 
/opt/xchem-fragalysis-2/maxwin/BulkDock/SCRATCH/511021/C28737-P80

>  <fragmenstein_runtime>  (922) 
29.958070278167725

>  <fragmenstein_outcome>  (922) 
too moved

>  <fragmenstein_mode>  (922) 
expansion

>  <fragmenstein_error>  (922) 


$$$$
C28737-P54
     RDKit          3D

 42 44  0  0  0  0  0  0  0  0999 V2000
    2.7120  -15.7562   24.1995 O   0  0  0  0  0  0  0  0  0  0  0  0
    2.2718  -15.0351   25.0998 C   0  0  0  0  0  0  0  0  0  0  0  0
    3.2490  -13.7172   25.4420 C   0  0  0  0  0  0  0  0  0  0  0  0
    3.6472  -12.4320   24.0816 C   0  0  0  0  0  0  0  0  0  0  0  0
    3.3736  -11.7713   22.8462 C   0  0  0  0  0  0  0  0  0  0  0  0
    4.5339  -10.5091   22.5313 N   0  0  0  0  0  0  0  0  0  0  0  0
    5.4636  -11.0230   23.1238 C   0  0  0  0  0  0  0  0  0  0  0  0
    4.5089  -12.5167   22.9344 N   0  0  0  0  0  0  0  0  0  0  0  0
    0.7740  -15.0993   25.9444 N   0  0  0  0  0  0  0  0  0  0  0  0
   -0.7547  -16.1978   25.6792 C   0  0  0  0  0  0  0  0  0  0  0  0
   -1.4290  -17.8605   26.4802 C   0  0  0  0  0  0  0  0  0  0  0  0
   -2.8186  -18.7970   27.3508 C   0  0  0  0  0  0  0  0  0  0  0  0
   -2.4516  -20.0728   28.1287 C   0  0  0  0  0  0  0  0  0  0  0  0
   -3.5549  -21.0988   27.8905 C   0  0  0  0  0  0  0  0  0  0  0  0
   -4.8408  -20.4475   27.4932 N   0  0  0  0  0  0  0  0  0  0  0  0
   -6.1721  -21.0289   27.9072 C   0  0  0  0  0  0  0  0  0  0  0  0
   -7.4151  -20.7303   27.5579 N   0  0  0  0  0  0  0  0  0  0  0  0
   -8.7229  -21.6054   28.0020 C   0  0  0  0  0  0  0  0  0  0  0  0
   -8.8369  -22.7138   28.7568 C   0  0  0  0  0  0  0  0  0  0  0  0
   -7.6151  -22.7618   29.3202 C   0  0  0  0  0  0  0  0  0  0  0  0
   -6.3295  -21.9770   28.9439 N   0  0  0  0  0  0  0  0  0  0  0  0
   -4.3158  -19.2325   26.6927 C   0  0  0  0  0  0  0  0  0  0  0  0
    3.9416  -13.9381   26.2209 H   0  0  0  0  0  0  0  0  0  0  0  0
    2.4205  -13.0700   25.7768 H   0  0  0  0  0  0  0  0  0  0  0  0
    2.5795  -11.6946   22.0737 H   0  0  0  0  0  0  0  0  0  0  0  0
    6.5495  -11.0087   23.2154 H   0  0  0  0  0  0  0  0  0  0  0  0
    4.9087  -13.3124   22.4187 H   0  0  0  0  0  0  0  0  0  0  0  0
    0.7663  -14.4057   26.6845 H   0  0  0  0  0  0  0  0  0  0  0  0
   -1.5833  -15.4829   25.7193 H   0  0  0  0  0  0  0  0  0  0  0  0
   -0.5922  -16.4201   24.6642 H   0  0  0  0  0  0  0  0  0  0  0  0
   -2.2937  -17.6032   25.8543 H   0  0  0  0  0  0  0  0  0  0  0  0
   -0.9125  -17.7801   27.4377 H   0  0  0  0  0  0  0  0  0  0  0  0
   -2.9695  -18.2408   28.2556 H   0  0  0  0  0  0  0  0  0  0  0  0
   -2.4270  -19.8503   29.2067 H   0  0  0  0  0  0  0  0  0  0  0  0
   -1.4639  -20.4827   27.9244 H   0  0  0  0  0  0  0  0  0  0  0  0
   -3.2048  -21.7111   27.0493 H   0  0  0  0  0  0  0  0  0  0  0  0
   -3.6058  -21.7022   28.7896 H   0  0  0  0  0  0  0  0  0  0  0  0
   -9.6866  -21.0888   27.8554 H   0  0  0  0  0  0  0  0  0  0  0  0
   -9.7386  -23.1694   29.1147 H   0  0  0  0  0  0  0  0  0  0  0  0
   -7.6249  -23.2279   30.2854 H   0  0  0  0  0  0  0  0  0  0  0  0
   -4.1386  -19.5624   25.6636 H   0  0  0  0  0  0  0  0  0  0  0  0
   -5.0117  -18.3945   26.6818 H   0  0  0  0  0  0  0  0  0  0  0  0
  1  2  2  0
  2  3  1  0
  3  4  1  0
  4  5  2  0
  5  6  1  0
  6  7  2  0
  7  8  1  0
  2  9  1  0
  9 10  1  0
 10 11  1  0
 11 12  1  0
 12 13  1  0
 13 14  1  0
 14 15  1  0
 15 16  1  0
 16 17  2  0
 17 18  1  0
 18 19  2  0
 19 20  1  0
 20 21  2  0
 15 22  1  0
  8  4  1  0
 22 12  1  0
 21 16  1  0
  3 23  1  0
  3 24  1  0
  5 25  1  0
  7 26  1  0
  8 27  1  0
  9 28  1  0
 10 29  1  0
 10 30  1  0
 11 31  1  0
 11 32  1  0
 12 33  1  0
 13 34  1  0
 13 35  1  0
 14 36  1  0
 14 37  1  0
 18 38  1  0
 19 39  1  0
 20 40  1  0
 22 41  1  0
 22 42  1  0
M  END
>  <Energy>  (923) 
571.20764915268785

>  <compound_id>  (923) 
28737

>  <target_id>  (923) 
1

>  <reference_id>  (923) 
54

>  <inspiration_ids>  (923) 
[80, 54]

>  <energy_score>  (923) 
607.2314435091653

>  <distance_score>  (923) 
10.331953878181983

>  <path>  (923) 
/opt/xchem-fragalysis-2/maxwin/BulkDock/SCRATCH/511021/C28737-P54/C28737-P54.minimised.mol

>  <scratch_subdir>  (923) 
/opt/xchem-fragalysis-2/maxwin/BulkDock/SCRATCH/511021/C28737-P54

>  <fragmenstein_runtime>  (923) 
27.43393611907959

>  <fragmenstein_outcome>  (923) 
too moved

>  <fragmenstein_mode>  (923) 
expansion

>  <fragmenstein_error>  (923) 


$$$$
C12010-P80
     RDKit          3D

 45 47  0  0  0  0  0  0  0  0999 V2000
   -2.8684  -17.0762   27.5997 C   0  0  0  0  0  0  0  0  0  0  0  0
   -3.6149  -16.1808   29.1360 C   0  0  0  0  0  0  0  0  0  0  0  0
   -2.3413  -14.9821   28.1853 N   0  0  0  0  0  0  0  0  0  0  0  0
   -2.0529  -14.7161   26.3862 C   0  0  0  0  0  0  0  0  0  0  0  0
   -2.5506  -15.3055   25.3897 O   0  0  0  0  0  0  0  0  0  0  0  0
   -0.7388  -13.3763   25.7721 C   0  0  0  0  0  0  0  0  0  0  0  0
    1.2211  -13.3490   25.7656 C   0  0  0  0  0  0  0  0  0  0  0  0
    2.3581  -13.7977   26.3991 C   0  0  0  0  0  0  0  0  0  0  0  0
    3.5998  -13.9372   25.2054 N   0  0  0  0  0  0  0  0  0  0  0  0
    3.0943  -13.2666   24.1733 C   0  0  0  0  0  0  0  0  0  0  0  0
    1.9409  -12.7141   24.5909 N   0  0  0  0  0  0  0  0  0  0  0  0
   -5.2924  -16.3318   30.4959 C   0  0  0  0  0  0  0  0  0  0  0  0
   -5.3252  -16.5783   32.5308 C   0  0  0  0  0  0  0  0  0  0  0  0
   -6.6225  -17.3187   33.8067 C   0  0  0  0  0  0  0  0  0  0  0  0
   -6.7692  -18.9385   33.8458 N   0  0  0  0  0  0  0  0  0  0  0  0
   -8.0523  -20.0610   33.5697 C   0  0  0  0  0  0  0  0  0  0  0  0
   -9.3582  -19.7657   32.9084 N   0  0  0  0  0  0  0  0  0  0  0  0
  -10.2926  -20.8929   32.2236 C   0  0  0  0  0  0  0  0  0  0  0  0
  -10.2214  -22.3209   32.4124 C   0  0  0  0  0  0  0  0  0  0  0  0
   -9.0191  -22.6555   33.1264 C   0  0  0  0  0  0  0  0  0  0  0  0
   -7.8865  -21.5128   33.5319 N   0  0  0  0  0  0  0  0  0  0  0  0
   -5.7212  -18.9745   32.7247 C   0  0  0  0  0  0  0  0  0  0  0  0
   -6.3994  -17.6696   31.4676 C   0  0  0  0  0  0  0  0  0  0  0  0
   -1.7783  -17.0144   27.5028 H   0  0  0  0  0  0  0  0  0  0  0  0
   -3.0055  -18.0945   27.4770 H   0  0  0  0  0  0  0  0  0  0  0  0
   -3.0533  -16.8382   26.5986 H   0  0  0  0  0  0  0  0  0  0  0  0
   -4.3498  -16.1948   28.4832 H   0  0  0  0  0  0  0  0  0  0  0  0
   -1.7203  -14.3945   28.7322 H   0  0  0  0  0  0  0  0  0  0  0  0
   -0.0703  -13.5699   26.7554 H   0  0  0  0  0  0  0  0  0  0  0  0
   -0.7919  -13.9694   24.7723 H   0  0  0  0  0  0  0  0  0  0  0  0
    2.6934  -14.2430   27.3277 H   0  0  0  0  0  0  0  0  0  0  0  0
    3.3767  -12.9018   23.2230 H   0  0  0  0  0  0  0  0  0  0  0  0
    1.4686  -11.9903   24.0875 H   0  0  0  0  0  0  0  0  0  0  0  0
   -5.7724  -15.3646   30.3381 H   0  0  0  0  0  0  0  0  0  0  0  0
   -5.3576  -15.6857   33.0852 H   0  0  0  0  0  0  0  0  0  0  0  0
   -4.3213  -16.9033   32.8652 H   0  0  0  0  0  0  0  0  0  0  0  0
   -7.5801  -16.7853   33.7799 H   0  0  0  0  0  0  0  0  0  0  0  0
   -6.1494  -17.0694   34.7666 H   0  0  0  0  0  0  0  0  0  0  0  0
  -11.1483  -20.5032   31.7130 H   0  0  0  0  0  0  0  0  0  0  0  0
  -10.9425  -23.0349   32.0506 H   0  0  0  0  0  0  0  0  0  0  0  0
   -8.6978  -23.6722   33.2825 H   0  0  0  0  0  0  0  0  0  0  0  0
   -5.5298  -19.9503   32.2482 H   0  0  0  0  0  0  0  0  0  0  0  0
   -4.7815  -18.6811   33.1999 H   0  0  0  0  0  0  0  0  0  0  0  0
   -6.7243  -18.2528   30.6127 H   0  0  0  0  0  0  0  0  0  0  0  0
   -7.2541  -17.4095   31.9898 H   0  0  0  0  0  0  0  0  0  0  0  0
  1  2  1  0
  2  3  1  0
  3  4  1  0
  4  5  2  0
  4  6  1  0
  6  7  1  0
  7  8  2  0
  8  9  1  0
  9 10  2  0
 10 11  1  0
  2 12  1  0
 12 13  1  0
 13 14  1  0
 14 15  1  0
 15 16  1  0
 16 17  2  0
 17 18  1  0
 18 19  2  0
 19 20  1  0
 20 21  2  0
 15 22  1  0
 22 23  1  0
 11  7  1  0
 23 12  1  0
 21 16  1  0
  1 24  1  0
  1 25  1  0
  1 26  1  0
  2 27  1  0
  3 28  1  0
  6 29  1  0
  6 30  1  0
  8 31  1  0
 10 32  1  0
 11 33  1  0
 12 34  1  0
 13 35  1  0
 13 36  1  0
 14 37  1  0
 14 38  1  0
 18 39  1  0
 19 40  1  0
 20 41  1  0
 22 42  1  0
 22 43  1  0
 23 44  1  0
 23 45  1  0
M  END
>  <Energy>  (924) 
1090.6911534981502

>  <compound_id>  (924) 
12010

>  <target_id>  (924) 
1

>  <reference_id>  (924) 
80

>  <inspiration_ids>  (924) 
[80, 54]

>  <energy_score>  (924) 
1112.9972485664441

>  <distance_score>  (924) 
11.480077432699519

>  <path>  (924) 
/opt/xchem-fragalysis-2/maxwin/BulkDock/SCRATCH/511021/C12010-P80/C12010-P80.minimised.mol

>  <scratch_subdir>  (924) 
/opt/xchem-fragalysis-2/maxwin/BulkDock/SCRATCH/511021/C12010-P80

>  <fragmenstein_runtime>  (924) 
24.39226508140564

>  <fragmenstein_outcome>  (924) 
too moved

>  <fragmenstein_mode>  (924) 
expansion

>  <fragmenstein_error>  (924) 


$$$$
C12010-P54
     RDKit          3D

 45 47  0  0  0  0  0  0  0  0999 V2000
    4.9068  -21.0444   26.5106 C   0  0  0  0  0  0  0  0  0  0  0  0
    4.0739  -21.5039   25.3114 C   0  0  0  0  0  0  0  0  0  0  0  0
    4.0270  -20.4423   24.2499 N   0  0  0  0  0  0  0  0  0  0  0  0
    5.0595  -19.4524   23.8102 C   0  0  0  0  0  0  0  0  0  0  0  0
    6.1529  -19.2123   24.2546 O   0  0  0  0  0  0  0  0  0  0  0  0
    4.5569  -18.6131   22.5675 C   0  0  0  0  0  0  0  0  0  0  0  0
    5.4738  -17.4982   21.9846 C   0  0  0  0  0  0  0  0  0  0  0  0
    5.1765  -16.4447   21.1229 C   0  0  0  0  0  0  0  0  0  0  0  0
    6.2812  -15.6838   20.8119 N   0  0  0  0  0  0  0  0  0  0  0  0
    7.2663  -16.2558   21.4634 C   0  0  0  0  0  0  0  0  0  0  0  0
    6.8320  -17.3431   22.1881 N   0  0  0  0  0  0  0  0  0  0  0  0
    2.7455  -22.3064   25.8296 C   0  0  0  0  0  0  0  0  0  0  0  0
    1.6617  -22.6016   24.7822 C   0  0  0  0  0  0  0  0  0  0  0  0
    0.6282  -23.6157   25.2844 C   0  0  0  0  0  0  0  0  0  0  0  0
    0.0355  -23.2502   26.5793 N   0  0  0  0  0  0  0  0  0  0  0  0
   -0.7880  -24.3333   27.0226 C   0  0  0  0  0  0  0  0  0  0  0  0
   -1.1128  -25.3008   26.1378 N   0  0  0  0  0  0  0  0  0  0  0  0
   -1.6768  -26.4330   26.5926 C   0  0  0  0  0  0  0  0  0  0  0  0
   -1.9764  -26.6334   27.9076 C   0  0  0  0  0  0  0  0  0  0  0  0
   -1.6992  -25.5745   28.7352 C   0  0  0  0  0  0  0  0  0  0  0  0
   -1.1266  -24.4273   28.3192 N   0  0  0  0  0  0  0  0  0  0  0  0
    0.9910  -22.9151   27.6448 C   0  0  0  0  0  0  0  0  0  0  0  0
    2.0725  -21.9117   27.1831 C   0  0  0  0  0  0  0  0  0  0  0  0
    5.9131  -20.7390   26.2106 H   0  0  0  0  0  0  0  0  0  0  0  0
    5.0313  -21.8550   27.2362 H   0  0  0  0  0  0  0  0  0  0  0  0
    4.4356  -20.1967   27.0126 H   0  0  0  0  0  0  0  0  0  0  0  0
    4.6695  -22.2800   24.8096 H   0  0  0  0  0  0  0  0  0  0  0  0
    3.2559  -20.4317   23.5942 H   0  0  0  0  0  0  0  0  0  0  0  0
    4.3503  -19.3233   21.7580 H   0  0  0  0  0  0  0  0  0  0  0  0
    3.6145  -18.1374   22.8596 H   0  0  0  0  0  0  0  0  0  0  0  0
    4.2059  -16.2068   20.7143 H   0  0  0  0  0  0  0  0  0  0  0  0
    8.2997  -15.9373   21.4719 H   0  0  0  0  0  0  0  0  0  0  0  0
    7.3958  -17.9184   22.8029 H   0  0  0  0  0  0  0  0  0  0  0  0
    3.1784  -23.2945   26.0635 H   0  0  0  0  0  0  0  0  0  0  0  0
    1.1344  -21.7078   24.4581 H   0  0  0  0  0  0  0  0  0  0  0  0
    2.1381  -23.0086   23.8814 H   0  0  0  0  0  0  0  0  0  0  0  0
    1.1395  -24.5876   25.3493 H   0  0  0  0  0  0  0  0  0  0  0  0
   -0.1523  -23.6906   24.5152 H   0  0  0  0  0  0  0  0  0  0  0  0
   -1.8735  -27.1913   25.8417 H   0  0  0  0  0  0  0  0  0  0  0  0
   -2.3924  -27.5646   28.2542 H   0  0  0  0  0  0  0  0  0  0  0  0
   -1.9020  -25.6221   29.8008 H   0  0  0  0  0  0  0  0  0  0  0  0
    0.4708  -22.4707   28.5032 H   0  0  0  0  0  0  0  0  0  0  0  0
    1.5089  -23.8199   27.9945 H   0  0  0  0  0  0  0  0  0  0  0  0
    2.8307  -21.8694   27.9734 H   0  0  0  0  0  0  0  0  0  0  0  0
    1.6314  -20.9161   27.1533 H   0  0  0  0  0  0  0  0  0  0  0  0
  1  2  1  0
  2  3  1  0
  3  4  1  0
  4  5  2  0
  4  6  1  0
  6  7  1  0
  7  8  2  0
  8  9  1  0
  9 10  2  0
 10 11  1  0
  2 12  1  0
 12 13  1  0
 13 14  1  0
 14 15  1  0
 15 16  1  0
 16 17  2  0
 17 18  1  0
 18 19  2  0
 19 20  1  0
 20 21  2  0
 15 22  1  0
 22 23  1  0
 11  7  1  0
 23 12  1  0
 21 16  1  0
  1 24  1  0
  1 25  1  0
  1 26  1  0
  2 27  1  0
  3 28  1  0
  6 29  1  0
  6 30  1  0
  8 31  1  0
 10 32  1  0
 11 33  1  0
 12 34  1  0
 13 35  1  0
 13 36  1  0
 14 37  1  0
 14 38  1  0
 18 39  1  0
 19 40  1  0
 20 41  1  0
 22 42  1  0
 22 43  1  0
 23 44  1  0
 23 45  1  0
M  END
>  <Energy>  (925) 
-30.669656864056961

>  <compound_id>  (925) 
12010

>  <target_id>  (925) 
1

>  <reference_id>  (925) 
54

>  <inspiration_ids>  (925) 
[80, 54]

>  <energy_score>  (925) 
-8.363561795763346

>  <distance_score>  (925) 
13.762333628036524

>  <path>  (925) 
/opt/xchem-fragalysis-2/maxwin/BulkDock/SCRATCH/511021/C12010-P54/C12010-P54.minimised.mol

>  <scratch_subdir>  (925) 
/opt/xchem-fragalysis-2/maxwin/BulkDock/SCRATCH/511021/C12010-P54

>  <fragmenstein_runtime>  (925) 
43.50980234146118

>  <fragmenstein_outcome>  (925) 
too moved

>  <fragmenstein_mode>  (925) 
expansion

>  <fragmenstein_error>  (925) 


$$$$
C28738-P80
     RDKit          3D

 42 44  0  0  0  0  0  0  0  0999 V2000
    0.6426  -21.0383   20.8219 C   0  0  0  0  0  0  0  0  0  0  0  0
   -0.2349  -20.5309   19.6778 C   0  0  0  0  0  0  0  0  0  0  0  0
   -0.1780  -19.0488   19.5272 N   0  0  0  0  0  0  0  0  0  0  0  0
   -0.1043  -18.2121   18.3165 C   0  0  0  0  0  0  0  0  0  0  0  0
   -0.1637  -18.5173   17.1497 O   0  0  0  0  0  0  0  0  0  0  0  0
    0.2030  -16.7246   18.6414 C   0  0  0  0  0  0  0  0  0  0  0  0
    1.2016  -15.9504   17.6868 C   0  0  0  0  0  0  0  0  0  0  0  0
    1.0262  -15.3825   16.4294 C   0  0  0  0  0  0  0  0  0  0  0  0
    2.0673  -14.5463   16.0705 N   0  0  0  0  0  0  0  0  0  0  0  0
    2.9094  -14.6079   17.0703 C   0  0  0  0  0  0  0  0  0  0  0  0
    2.4548  -15.4566   18.0489 N   0  0  0  0  0  0  0  0  0  0  0  0
   -1.7528  -19.1809   20.0480 C   0  0  0  0  0  0  0  0  0  0  0  0
   -2.4110  -17.8347   20.4299 C   0  0  0  0  0  0  0  0  0  0  0  0
   -3.7761  -18.2285   21.0521 C   0  0  0  0  0  0  0  0  0  0  0  0
   -3.5253  -19.4628   21.7755 N   0  0  0  0  0  0  0  0  0  0  0  0
   -4.5904  -20.3353   21.9740 C   0  0  0  0  0  0  0  0  0  0  0  0
   -4.3497  -21.6112   22.3222 N   0  0  0  0  0  0  0  0  0  0  0  0
   -5.3981  -22.4665   22.3764 C   0  0  0  0  0  0  0  0  0  0  0  0
   -6.6923  -22.1123   22.0987 C   0  0  0  0  0  0  0  0  0  0  0  0
   -6.8616  -20.7845   21.8169 C   0  0  0  0  0  0  0  0  0  0  0  0
   -5.8470  -19.8905   21.7712 N   0  0  0  0  0  0  0  0  0  0  0  0
   -2.1887  -19.9708   21.4149 C   0  0  0  0  0  0  0  0  0  0  0  0
    1.6697  -20.6738   20.7056 H   0  0  0  0  0  0  0  0  0  0  0  0
    0.6750  -22.1325   20.8112 H   0  0  0  0  0  0  0  0  0  0  0  0
    0.3012  -20.7200   21.8069 H   0  0  0  0  0  0  0  0  0  0  0  0
   -1.1412  -21.1214   19.4717 H   0  0  0  0  0  0  0  0  0  0  0  0
    0.3374  -20.8397   18.7856 H   0  0  0  0  0  0  0  0  0  0  0  0
    0.5941  -16.6780   19.6615 H   0  0  0  0  0  0  0  0  0  0  0  0
   -0.7502  -16.1862   18.6073 H   0  0  0  0  0  0  0  0  0  0  0  0
    0.1650  -15.4969   15.7826 H   0  0  0  0  0  0  0  0  0  0  0  0
    3.8449  -14.0734   17.1640 H   0  0  0  0  0  0  0  0  0  0  0  0
    2.9179  -15.5536   18.9423 H   0  0  0  0  0  0  0  0  0  0  0  0
   -2.3416  -19.5458   19.1867 H   0  0  0  0  0  0  0  0  0  0  0  0
   -1.7873  -17.2941   21.1467 H   0  0  0  0  0  0  0  0  0  0  0  0
   -2.5636  -17.1851   19.5637 H   0  0  0  0  0  0  0  0  0  0  0  0
   -4.4936  -18.3724   20.2341 H   0  0  0  0  0  0  0  0  0  0  0  0
   -4.1454  -17.4384   21.7139 H   0  0  0  0  0  0  0  0  0  0  0  0
   -5.1442  -23.4855   22.6531 H   0  0  0  0  0  0  0  0  0  0  0  0
   -7.5173  -22.8096   22.1311 H   0  0  0  0  0  0  0  0  0  0  0  0
   -7.8466  -20.3776   21.6073 H   0  0  0  0  0  0  0  0  0  0  0  0
   -2.1769  -21.0558   21.2787 H   0  0  0  0  0  0  0  0  0  0  0  0
   -1.5019  -19.7063   22.2239 H   0  0  0  0  0  0  0  0  0  0  0  0
  1  2  1  0
  2  3  1  0
  3  4  1  0
  4  5  2  0
  4  6  1  0
  6  7  1  0
  7  8  2  0
  8  9  1  0
  9 10  2  0
 10 11  1  0
  3 12  1  0
 12 13  1  0
 13 14  1  0
 14 15  1  0
 15 16  1  0
 16 17  2  0
 17 18  1  0
 18 19  2  0
 19 20  1  0
 20 21  2  0
 15 22  1  0
 11  7  1  0
 22 12  1  0
 21 16  1  0
  1 23  1  0
  1 24  1  0
  1 25  1  0
  2 26  1  0
  2 27  1  0
  6 28  1  0
  6 29  1  0
  8 30  1  0
 10 31  1  0
 11 32  1  0
 12 33  1  0
 13 34  1  0
 13 35  1  0
 14 36  1  0
 14 37  1  0
 18 38  1  0
 19 39  1  0
 20 40  1  0
 22 41  1  0
 22 42  1  0
M  END
>  <Energy>  (926) 
62.251600684525336

>  <compound_id>  (926) 
28738

>  <target_id>  (926) 
1

>  <reference_id>  (926) 
80

>  <inspiration_ids>  (926) 
[80, 54]

>  <energy_score>  (926) 
61.58225721669305

>  <distance_score>  (926) 
13.978398482991672

>  <path>  (926) 
/opt/xchem-fragalysis-2/maxwin/BulkDock/SCRATCH/511021/C28738-P80/C28738-P80.minimised.mol

>  <scratch_subdir>  (926) 
/opt/xchem-fragalysis-2/maxwin/BulkDock/SCRATCH/511021/C28738-P80

>  <fragmenstein_runtime>  (926) 
41.593926668167114

>  <fragmenstein_outcome>  (926) 
too moved

>  <fragmenstein_mode>  (926) 
expansion

>  <fragmenstein_error>  (926) 


$$$$
C28738-P54
     RDKit          3D

 42 44  0  0  0  0  0  0  0  0999 V2000
   -4.5893  -14.6219   24.9351 C   0  0  0  0  0  0  0  0  0  0  0  0
   -3.6771  -13.9276   25.9697 C   0  0  0  0  0  0  0  0  0  0  0  0
   -2.6985  -13.0574   25.3410 N   0  0  0  0  0  0  0  0  0  0  0  0
   -1.0634  -12.6479   25.7770 C   0  0  0  0  0  0  0  0  0  0  0  0
   -0.5812  -13.0360   26.8332 O   0  0  0  0  0  0  0  0  0  0  0  0
    0.4655  -11.6984   24.5703 C   0  0  0  0  0  0  0  0  0  0  0  0
    2.3103  -11.6641   24.3540 C   0  0  0  0  0  0  0  0  0  0  0  0
    3.4880  -12.0339   24.8742 C   0  0  0  0  0  0  0  0  0  0  0  0
    4.3439  -10.9376   24.5877 N   0  0  0  0  0  0  0  0  0  0  0  0
    4.4874  -11.1293   23.2841 C   0  0  0  0  0  0  0  0  0  0  0  0
    3.3173  -11.8978   22.9885 N   0  0  0  0  0  0  0  0  0  0  0  0
   -3.8573  -11.8570   25.9258 C   0  0  0  0  0  0  0  0  0  0  0  0
   -4.9718  -11.4977   24.9269 C   0  0  0  0  0  0  0  0  0  0  0  0
   -6.3512  -11.7940   25.5680 C   0  0  0  0  0  0  0  0  0  0  0  0
   -6.1119  -12.2839   26.9175 N   0  0  0  0  0  0  0  0  0  0  0  0
   -6.6396  -13.5050   27.2801 C   0  0  0  0  0  0  0  0  0  0  0  0
   -7.6374  -14.0070   26.5423 N   0  0  0  0  0  0  0  0  0  0  0  0
   -7.8011  -15.3276   26.5787 C   0  0  0  0  0  0  0  0  0  0  0  0
   -7.0031  -16.1504   27.3227 C   0  0  0  0  0  0  0  0  0  0  0  0
   -6.1812  -15.5378   28.2204 C   0  0  0  0  0  0  0  0  0  0  0  0
   -6.0078  -14.2159   28.2241 N   0  0  0  0  0  0  0  0  0  0  0  0
   -4.7494  -11.9578   27.3177 C   0  0  0  0  0  0  0  0  0  0  0  0
   -5.4736  -14.0586   24.6582 H   0  0  0  0  0  0  0  0  0  0  0  0
   -4.9238  -15.5898   25.3221 H   0  0  0  0  0  0  0  0  0  0  0  0
   -4.0389  -14.8258   24.0084 H   0  0  0  0  0  0  0  0  0  0  0  0
   -4.0187  -13.9333   26.9853 H   0  0  0  0  0  0  0  0  0  0  0  0
   -2.9944  -14.7852   26.0546 H   0  0  0  0  0  0  0  0  0  0  0  0
    0.4417  -11.6340   23.5017 H   0  0  0  0  0  0  0  0  0  0  0  0
    0.9568  -12.6346   24.8546 H   0  0  0  0  0  0  0  0  0  0  0  0
    3.6492  -12.8185   25.5823 H   0  0  0  0  0  0  0  0  0  0  0  0
    5.2034  -10.6126   22.6527 H   0  0  0  0  0  0  0  0  0  0  0  0
    2.8603  -11.7770   22.1022 H   0  0  0  0  0  0  0  0  0  0  0  0
   -3.3126  -11.0678   26.4274 H   0  0  0  0  0  0  0  0  0  0  0  0
   -4.9212  -10.4281   24.6867 H   0  0  0  0  0  0  0  0  0  0  0  0
   -4.8527  -12.0173   23.9708 H   0  0  0  0  0  0  0  0  0  0  0  0
   -6.9214  -10.8592   25.6329 H   0  0  0  0  0  0  0  0  0  0  0  0
   -6.9297  -12.4558   24.9152 H   0  0  0  0  0  0  0  0  0  0  0  0
   -8.5922  -15.6904   25.9399 H   0  0  0  0  0  0  0  0  0  0  0  0
   -7.0507  -17.2156   27.2778 H   0  0  0  0  0  0  0  0  0  0  0  0
   -5.5955  -16.0906   28.9479 H   0  0  0  0  0  0  0  0  0  0  0  0
   -4.2895  -12.5114   28.1445 H   0  0  0  0  0  0  0  0  0  0  0  0
   -4.8192  -10.9322   27.7165 H   0  0  0  0  0  0  0  0  0  0  0  0
  1  2  1  0
  2  3  1  0
  3  4  1  0
  4  5  2  0
  4  6  1  0
  6  7  1  0
  7  8  2  0
  8  9  1  0
  9 10  2  0
 10 11  1  0
  3 12  1  0
 12 13  1  0
 13 14  1  0
 14 15  1  0
 15 16  1  0
 16 17  2  0
 17 18  1  0
 18 19  2  0
 19 20  1  0
 20 21  2  0
 15 22  1  0
 11  7  1  0
 22 12  1  0
 21 16  1  0
  1 23  1  0
  1 24  1  0
  1 25  1  0
  2 26  1  0
  2 27  1  0
  6 28  1  0
  6 29  1  0
  8 30  1  0
 10 31  1  0
 11 32  1  0
 12 33  1  0
 13 34  1  0
 13 35  1  0
 14 36  1  0
 14 37  1  0
 18 38  1  0
 19 39  1  0
 20 40  1  0
 22 41  1  0
 22 42  1  0
M  END
>  <Energy>  (927) 
461.42544154469783

>  <compound_id>  (927) 
28738

>  <target_id>  (927) 
1

>  <reference_id>  (927) 
54

>  <inspiration_ids>  (927) 
[80, 54]

>  <energy_score>  (927) 
460.7560980768586

>  <distance_score>  (927) 
13.28916074654442

>  <path>  (927) 
/opt/xchem-fragalysis-2/maxwin/BulkDock/SCRATCH/511021/C28738-P54/C28738-P54.minimised.mol

>  <scratch_subdir>  (927) 
/opt/xchem-fragalysis-2/maxwin/BulkDock/SCRATCH/511021/C28738-P54

>  <fragmenstein_runtime>  (927) 
28.16534948348999

>  <fragmenstein_outcome>  (927) 
too moved

>  <fragmenstein_mode>  (927) 
expansion

>  <fragmenstein_error>  (927) 


$$$$
C28739-P80
     RDKit          3D

 45 47  0  0  0  0  0  0  0  0999 V2000
    4.7260  -16.3017   24.0231 O   0  0  0  0  0  0  0  0  0  0  0  0
    4.2214  -17.4125   24.2246 C   0  0  0  0  0  0  0  0  0  0  0  0
    4.5866  -18.3975   23.0613 C   0  0  0  0  0  0  0  0  0  0  0  0
    5.3456  -17.5867   21.8953 C   0  0  0  0  0  0  0  0  0  0  0  0
    5.1926  -17.5194   20.5169 C   0  0  0  0  0  0  0  0  0  0  0  0
    6.0115  -16.5667   19.9397 N   0  0  0  0  0  0  0  0  0  0  0  0
    6.6899  -16.0524   20.9354 C   0  0  0  0  0  0  0  0  0  0  0  0
    6.3478  -16.6441   22.1221 N   0  0  0  0  0  0  0  0  0  0  0  0
    3.3758  -17.9766   25.5275 N   0  0  0  0  0  0  0  0  0  0  0  0
    3.0082  -17.1739   27.1874 C   0  0  0  0  0  0  0  0  0  0  0  0
    1.5423  -16.9132   28.4394 C   0  0  0  0  0  0  0  0  0  0  0  0
    1.2765  -17.1795   30.4089 C   0  0  0  0  0  0  0  0  0  0  0  0
    0.5133  -18.5532   31.1351 C   0  0  0  0  0  0  0  0  0  0  0  0
   -0.5640  -18.5143   32.2937 C   0  0  0  0  0  0  0  0  0  0  0  0
   -0.7847  -17.2444   32.9624 N   0  0  0  0  0  0  0  0  0  0  0  0
   -2.0281  -17.0629   33.5975 C   0  0  0  0  0  0  0  0  0  0  0  0
   -2.2796  -15.9031   34.2116 N   0  0  0  0  0  0  0  0  0  0  0  0
   -3.5246  -15.6894   34.7006 C   0  0  0  0  0  0  0  0  0  0  0  0
   -4.5785  -16.5453   34.5458 C   0  0  0  0  0  0  0  0  0  0  0  0
   -4.2385  -17.7032   33.9284 C   0  0  0  0  0  0  0  0  0  0  0  0
   -2.9671  -18.0164   33.5655 N   0  0  0  0  0  0  0  0  0  0  0  0
   -0.1833  -16.0298   32.4243 C   0  0  0  0  0  0  0  0  0  0  0  0
    1.1705  -16.3138   31.7544 C   0  0  0  0  0  0  0  0  0  0  0  0
    3.7304  -18.9155   22.6427 H   0  0  0  0  0  0  0  0  0  0  0  0
    5.2933  -19.1351   23.4564 H   0  0  0  0  0  0  0  0  0  0  0  0
    4.5074  -18.0951   19.9068 H   0  0  0  0  0  0  0  0  0  0  0  0
    7.4195  -15.2573   20.8706 H   0  0  0  0  0  0  0  0  0  0  0  0
    6.6272  -16.3283   23.0416 H   0  0  0  0  0  0  0  0  0  0  0  0
    3.1815  -18.9466   25.4023 H   0  0  0  0  0  0  0  0  0  0  0  0
    3.5311  -16.2123   27.2037 H   0  0  0  0  0  0  0  0  0  0  0  0
    3.7412  -17.6208   27.8398 H   0  0  0  0  0  0  0  0  0  0  0  0
    0.7511  -17.4096   27.8828 H   0  0  0  0  0  0  0  0  0  0  0  0
    1.6829  -15.8991   28.2972 H   0  0  0  0  0  0  0  0  0  0  0  0
    2.3384  -17.3778   30.6242 H   0  0  0  0  0  0  0  0  0  0  0  0
    0.2253  -19.2907   30.3854 H   0  0  0  0  0  0  0  0  0  0  0  0
    1.3302  -19.0363   31.7006 H   0  0  0  0  0  0  0  0  0  0  0  0
   -0.2408  -19.2332   33.0606 H   0  0  0  0  0  0  0  0  0  0  0  0
   -1.4906  -18.9412   31.9289 H   0  0  0  0  0  0  0  0  0  0  0  0
   -3.6512  -14.7318   35.1976 H   0  0  0  0  0  0  0  0  0  0  0  0
   -5.5793  -16.3206   34.8768 H   0  0  0  0  0  0  0  0  0  0  0  0
   -4.9924  -18.4523   33.7059 H   0  0  0  0  0  0  0  0  0  0  0  0
   -0.8344  -15.4888   31.7381 H   0  0  0  0  0  0  0  0  0  0  0  0
    0.0193  -15.3412   33.2560 H   0  0  0  0  0  0  0  0  0  0  0  0
    1.6850  -16.9427   32.5102 H   0  0  0  0  0  0  0  0  0  0  0  0
    1.8406  -15.4734   31.8662 H   0  0  0  0  0  0  0  0  0  0  0  0
  1  2  2  0
  2  3  1  0
  3  4  1  0
  4  5  2  0
  5  6  1  0
  6  7  2  0
  7  8  1  0
  2  9  1  0
  9 10  1  0
 10 11  1  0
 11 12  1  0
 12 13  1  0
 13 14  1  0
 14 15  1  0
 15 16  1  0
 16 17  2  0
 17 18  1  0
 18 19  2  0
 19 20  1  0
 20 21  2  0
 15 22  1  0
 22 23  1  0
  8  4  1  0
 23 12  1  0
 21 16  1  0
  3 24  1  0
  3 25  1  0
  5 26  1  0
  7 27  1  0
  8 28  1  0
  9 29  1  0
 10 30  1  0
 10 31  1  0
 11 32  1  0
 11 33  1  0
 12 34  1  0
 13 35  1  0
 13 36  1  0
 14 37  1  0
 14 38  1  0
 18 39  1  0
 19 40  1  0
 20 41  1  0
 22 42  1  0
 22 43  1  0
 23 44  1  0
 23 45  1  0
M  END
>  <Energy>  (928) 
244.08704490679426

>  <compound_id>  (928) 
28739

>  <target_id>  (928) 
1

>  <reference_id>  (928) 
80

>  <inspiration_ids>  (928) 
[80, 54]

>  <energy_score>  (928) 
268.7489156491552

>  <distance_score>  (928) 
13.913494492496262

>  <path>  (928) 
/opt/xchem-fragalysis-2/maxwin/BulkDock/SCRATCH/511021/C28739-P80/C28739-P80.minimised.mol

>  <scratch_subdir>  (928) 
/opt/xchem-fragalysis-2/maxwin/BulkDock/SCRATCH/511021/C28739-P80

>  <fragmenstein_runtime>  (928) 
31.385521173477173

>  <fragmenstein_outcome>  (928) 
too moved

>  <fragmenstein_mode>  (928) 
expansion

>  <fragmenstein_error>  (928) 


$$$$
C28739-P54
     RDKit          3D

 45 47  0  0  0  0  0  0  0  0999 V2000
    2.9389  -12.5920   25.3279 O   0  0  0  0  0  0  0  0  0  0  0  0
    2.0550  -12.1253   26.0473 C   0  0  0  0  0  0  0  0  0  0  0  0
    2.1531   -9.7905   26.0108 C   0  0  0  0  0  0  0  0  0  0  0  0
    1.4116   -8.1818   26.3577 C   0  0  0  0  0  0  0  0  0  0  0  0
    0.3955   -7.4790   25.6810 C   0  0  0  0  0  0  0  0  0  0  0  0
    0.6936   -6.1451   25.4784 N   0  0  0  0  0  0  0  0  0  0  0  0
    1.8433   -5.9613   26.0684 C   0  0  0  0  0  0  0  0  0  0  0  0
    2.2624   -7.1051   26.6722 N   0  0  0  0  0  0  0  0  0  0  0  0
    0.8265  -13.2861   27.2392 N   0  0  0  0  0  0  0  0  0  0  0  0
    0.5878  -15.3912   27.5293 C   0  0  0  0  0  0  0  0  0  0  0  0
   -0.4141  -17.2436   28.3769 C   0  0  0  0  0  0  0  0  0  0  0  0
   -1.8764  -18.6769   29.3542 C   0  0  0  0  0  0  0  0  0  0  0  0
   -3.1347  -19.7883   30.8212 C   0  0  0  0  0  0  0  0  0  0  0  0
   -4.5950  -20.9578   31.4113 C   0  0  0  0  0  0  0  0  0  0  0  0
   -5.4510  -21.8062   30.0877 N   0  0  0  0  0  0  0  0  0  0  0  0
   -7.1013  -22.3649   30.0941 C   0  0  0  0  0  0  0  0  0  0  0  0
   -7.7979  -22.4675   31.3008 N   0  0  0  0  0  0  0  0  0  0  0  0
   -9.0454  -22.9870   31.3910 C   0  0  0  0  0  0  0  0  0  0  0  0
   -9.6889  -23.5412   30.3336 C   0  0  0  0  0  0  0  0  0  0  0  0
   -8.9393  -23.5407   29.1988 C   0  0  0  0  0  0  0  0  0  0  0  0
   -7.6894  -23.0009   29.0948 N   0  0  0  0  0  0  0  0  0  0  0  0
   -4.1599  -21.5735   28.8716 C   0  0  0  0  0  0  0  0  0  0  0  0
   -3.3293  -20.2183   29.6115 C   0  0  0  0  0  0  0  0  0  0  0  0
    1.4845   -9.2462   25.0708 H   0  0  0  0  0  0  0  0  0  0  0  0
    3.2220   -9.3250   25.8354 H   0  0  0  0  0  0  0  0  0  0  0  0
   -0.4609   -7.8883   25.1717 H   0  0  0  0  0  0  0  0  0  0  0  0
    2.4103   -5.0414   26.1000 H   0  0  0  0  0  0  0  0  0  0  0  0
    3.1787   -7.2435   27.0790 H   0  0  0  0  0  0  0  0  0  0  0  0
    0.1175  -12.7022   27.6813 H   0  0  0  0  0  0  0  0  0  0  0  0
    0.0214  -15.3752   26.5675 H   0  0  0  0  0  0  0  0  0  0  0  0
    0.6181  -15.0857   28.5987 H   0  0  0  0  0  0  0  0  0  0  0  0
   -0.6274  -17.7998   27.4485 H   0  0  0  0  0  0  0  0  0  0  0  0
    0.5647  -17.5451   28.7040 H   0  0  0  0  0  0  0  0  0  0  0  0
   -2.3954  -18.1670   28.6461 H   0  0  0  0  0  0  0  0  0  0  0  0
   -3.6843  -19.0840   31.6146 H   0  0  0  0  0  0  0  0  0  0  0  0
   -2.6061  -20.3487   31.6447 H   0  0  0  0  0  0  0  0  0  0  0  0
   -5.2015  -20.3701   32.0208 H   0  0  0  0  0  0  0  0  0  0  0  0
   -4.4001  -21.5992   32.2548 H   0  0  0  0  0  0  0  0  0  0  0  0
   -9.4938  -22.9361   32.3775 H   0  0  0  0  0  0  0  0  0  0  0  0
  -10.6797  -23.9599   30.3956 H   0  0  0  0  0  0  0  0  0  0  0  0
   -9.3136  -23.9875   28.2827 H   0  0  0  0  0  0  0  0  0  0  0  0
   -4.6144  -21.1788   27.9312 H   0  0  0  0  0  0  0  0  0  0  0  0
   -3.4962  -22.4685   28.8464 H   0  0  0  0  0  0  0  0  0  0  0  0
   -2.6306  -21.1664   29.4522 H   0  0  0  0  0  0  0  0  0  0  0  0
   -4.0323  -19.6898   28.9456 H   0  0  0  0  0  0  0  0  0  0  0  0
  1  2  2  0
  2  3  1  0
  3  4  1  0
  4  5  2  0
  5  6  1  0
  6  7  2  0
  7  8  1  0
  2  9  1  0
  9 10  1  0
 10 11  1  0
 11 12  1  0
 12 13  1  0
 13 14  1  0
 14 15  1  0
 15 16  1  0
 16 17  2  0
 17 18  1  0
 18 19  2  0
 19 20  1  0
 20 21  2  0
 15 22  1  0
 22 23  1  0
  8  4  1  0
 23 12  1  0
 21 16  1  0
  3 24  1  0
  3 25  1  0
  5 26  1  0
  7 27  1  0
  8 28  1  0
  9 29  1  0
 10 30  1  0
 10 31  1  0
 11 32  1  0
 11 33  1  0
 12 34  1  0
 13 35  1  0
 13 36  1  0
 14 37  1  0
 14 38  1  0
 18 39  1  0
 19 40  1  0
 20 41  1  0
 22 42  1  0
 22 43  1  0
 23 44  1  0
 23 45  1  0
M  END
>  <Energy>  (929) 
1924.4411512941829

>  <compound_id>  (929) 
28739

>  <target_id>  (929) 
1

>  <reference_id>  (929) 
54

>  <inspiration_ids>  (929) 
[80, 54]

>  <energy_score>  (929) 
1949.1030220365542

>  <distance_score>  (929) 
10.135629471384421

>  <path>  (929) 
/opt/xchem-fragalysis-2/maxwin/BulkDock/SCRATCH/511021/C28739-P54/C28739-P54.minimised.mol

>  <scratch_subdir>  (929) 
/opt/xchem-fragalysis-2/maxwin/BulkDock/SCRATCH/511021/C28739-P54

>  <fragmenstein_runtime>  (929) 
25.452433824539185

>  <fragmenstein_outcome>  (929) 
too moved

>  <fragmenstein_mode>  (929) 
expansion

>  <fragmenstein_error>  (929) 


$$$$
C25267-P80
     RDKit          3D

 45 47  0  0  0  0  0  0  0  0999 V2000
   -2.7269  -15.0944   29.7284 C   0  0  0  0  0  0  0  0  0  0  0  0
   -3.4620  -15.8917   28.6131 C   0  0  0  0  0  0  0  0  0  0  0  0
   -2.1454  -15.0416   27.3225 N   0  0  0  0  0  0  0  0  0  0  0  0
   -2.1286  -14.9079   25.4053 C   0  0  0  0  0  0  0  0  0  0  0  0
   -2.9963  -15.4528   24.7559 O   0  0  0  0  0  0  0  0  0  0  0  0
   -0.7127  -14.0844   24.1134 C   0  0  0  0  0  0  0  0  0  0  0  0
   -0.3448  -12.5765   22.6944 C   0  0  0  0  0  0  0  0  0  0  0  0
    0.5743  -11.3126   22.4969 C   0  0  0  0  0  0  0  0  0  0  0  0
    0.2183  -10.2278   21.5956 N   0  0  0  0  0  0  0  0  0  0  0  0
   -0.9549  -10.4354   21.1051 C   0  0  0  0  0  0  0  0  0  0  0  0
   -1.4334  -11.6726   21.4818 N   0  0  0  0  0  0  0  0  0  0  0  0
   -5.1278  -15.8502   29.9815 C   0  0  0  0  0  0  0  0  0  0  0  0
   -6.0212  -14.1590   30.1322 C   0  0  0  0  0  0  0  0  0  0  0  0
   -7.3236  -13.6609   31.2093 C   0  0  0  0  0  0  0  0  0  0  0  0
   -7.8532  -14.4746   32.5449 C   0  0  0  0  0  0  0  0  0  0  0  0
   -6.8666  -15.7633   33.0358 N   0  0  0  0  0  0  0  0  0  0  0  0
   -7.5021  -16.4344   34.0653 C   0  0  0  0  0  0  0  0  0  0  0  0
   -6.9550  -17.4770   34.6581 N   0  0  0  0  0  0  0  0  0  0  0  0
   -7.3376  -17.7141   35.9231 C   0  0  0  0  0  0  0  0  0  0  0  0
   -8.3480  -17.0426   36.5594 C   0  0  0  0  0  0  0  0  0  0  0  0
   -9.0384  -16.1795   35.7742 C   0  0  0  0  0  0  0  0  0  0  0  0
   -8.6157  -15.8575   34.5546 N   0  0  0  0  0  0  0  0  0  0  0  0
   -5.6389  -16.4695   31.8724 C   0  0  0  0  0  0  0  0  0  0  0  0
   -1.6506  -14.9501   29.6188 H   0  0  0  0  0  0  0  0  0  0  0  0
   -3.0969  -14.0815   29.7291 H   0  0  0  0  0  0  0  0  0  0  0  0
   -2.7753  -15.6510   30.6605 H   0  0  0  0  0  0  0  0  0  0  0  0
   -3.2906  -16.7855   28.0369 H   0  0  0  0  0  0  0  0  0  0  0  0
   -1.3131  -14.6090   27.6874 H   0  0  0  0  0  0  0  0  0  0  0  0
   -1.0738  -14.7043   23.2760 H   0  0  0  0  0  0  0  0  0  0  0  0
    0.3158  -14.2963   24.3682 H   0  0  0  0  0  0  0  0  0  0  0  0
    1.6348  -11.5229   22.7066 H   0  0  0  0  0  0  0  0  0  0  0  0
   -1.4778   -9.8121   20.3937 H   0  0  0  0  0  0  0  0  0  0  0  0
   -2.0556  -12.2418   20.9261 H   0  0  0  0  0  0  0  0  0  0  0  0
   -5.7576  -16.4919   29.4000 H   0  0  0  0  0  0  0  0  0  0  0  0
   -6.5022  -14.0024   29.1513 H   0  0  0  0  0  0  0  0  0  0  0  0
   -5.2998  -13.3337   30.1773 H   0  0  0  0  0  0  0  0  0  0  0  0
   -8.2112  -13.4672   30.5830 H   0  0  0  0  0  0  0  0  0  0  0  0
   -7.0827  -12.6290   31.5065 H   0  0  0  0  0  0  0  0  0  0  0  0
   -8.9063  -14.7156   32.5698 H   0  0  0  0  0  0  0  0  0  0  0  0
   -7.8444  -13.7430   33.3792 H   0  0  0  0  0  0  0  0  0  0  0  0
   -6.7728  -18.4810   36.4410 H   0  0  0  0  0  0  0  0  0  0  0  0
   -8.6049  -17.2035   37.5934 H   0  0  0  0  0  0  0  0  0  0  0  0
   -9.9183  -15.6524   36.1229 H   0  0  0  0  0  0  0  0  0  0  0  0
   -6.1800  -17.4153   31.8215 H   0  0  0  0  0  0  0  0  0  0  0  0
   -4.7914  -16.5844   32.5622 H   0  0  0  0  0  0  0  0  0  0  0  0
  1  2  1  0
  2  3  1  0
  3  4  1  0
  4  5  2  0
  4  6  1  0
  6  7  1  0
  7  8  2  0
  8  9  1  0
  9 10  2  0
 10 11  1  0
  2 12  1  0
 12 13  1  0
 13 14  1  0
 14 15  1  0
 15 16  1  0
 16 17  1  0
 17 18  2  0
 18 19  1  0
 19 20  2  0
 20 21  1  0
 21 22  2  0
 16 23  1  0
 11  7  1  0
 23 12  1  0
 22 17  1  0
  1 24  1  0
  1 25  1  0
  1 26  1  0
  2 27  1  0
  3 28  1  0
  6 29  1  0
  6 30  1  0
  8 31  1  0
 10 32  1  0
 11 33  1  0
 12 34  1  0
 13 35  1  0
 13 36  1  0
 14 37  1  0
 14 38  1  0
 15 39  1  0
 15 40  1  0
 19 41  1  0
 20 42  1  0
 21 43  1  0
 23 44  1  0
 23 45  1  0
M  END
>  <Energy>  (930) 
865.6396256529024

>  <compound_id>  (930) 
25267

>  <target_id>  (930) 
1

>  <reference_id>  (930) 
80

>  <inspiration_ids>  (930) 
[80, 54]

>  <energy_score>  (930) 
885.1019922017149

>  <distance_score>  (930) 
12.750627878292544

>  <path>  (930) 
/opt/xchem-fragalysis-2/maxwin/BulkDock/SCRATCH/511021/C25267-P80/C25267-P80.minimised.mol

>  <scratch_subdir>  (930) 
/opt/xchem-fragalysis-2/maxwin/BulkDock/SCRATCH/511021/C25267-P80

>  <fragmenstein_runtime>  (930) 
43.73883295059204

>  <fragmenstein_outcome>  (930) 
too moved

>  <fragmenstein_mode>  (930) 
expansion

>  <fragmenstein_error>  (930) 


$$$$
C25267-P54
     RDKit          3D

 45 47  0  0  0  0  0  0  0  0999 V2000
   -0.2484  -15.6441   29.6659 C   0  0  0  0  0  0  0  0  0  0  0  0
    0.5877  -16.6149   29.2292 C   0  0  0  0  0  0  0  0  0  0  0  0
    1.7137  -14.8545   28.4388 N   0  0  0  0  0  0  0  0  0  0  0  0
    3.7718  -14.5112   28.0518 C   0  0  0  0  0  0  0  0  0  0  0  0
    4.4224  -15.4182   28.4677 O   0  0  0  0  0  0  0  0  0  0  0  0
    5.1272  -13.1951   26.9104 C   0  0  0  0  0  0  0  0  0  0  0  0
    7.3401  -13.2216   25.8991 C   0  0  0  0  0  0  0  0  0  0  0  0
    8.8209  -13.0577   26.3545 C   0  0  0  0  0  0  0  0  0  0  0  0
    9.7501  -12.6782   25.4040 N   0  0  0  0  0  0  0  0  0  0  0  0
    9.1342  -12.7128   24.2656 C   0  0  0  0  0  0  0  0  0  0  0  0
    7.8696  -13.1971   24.3766 N   0  0  0  0  0  0  0  0  0  0  0  0
   -1.1393  -18.2233   29.3120 C   0  0  0  0  0  0  0  0  0  0  0  0
   -2.4707  -18.1407   29.1891 C   0  0  0  0  0  0  0  0  0  0  0  0
   -4.0146  -17.5770   30.5915 C   0  0  0  0  0  0  0  0  0  0  0  0
   -4.5007  -18.3080   31.6803 C   0  0  0  0  0  0  0  0  0  0  0  0
   -3.8265  -20.0581   31.5392 N   0  0  0  0  0  0  0  0  0  0  0  0
   -4.9333  -21.2769   31.5066 C   0  0  0  0  0  0  0  0  0  0  0  0
   -5.7754  -21.7749   30.1865 N   0  0  0  0  0  0  0  0  0  0  0  0
   -7.3118  -22.4691   30.3607 C   0  0  0  0  0  0  0  0  0  0  0  0
   -7.9609  -22.7039   31.5798 C   0  0  0  0  0  0  0  0  0  0  0  0
   -7.0733  -22.4445   32.6349 C   0  0  0  0  0  0  0  0  0  0  0  0
   -5.6393  -21.7977   32.5661 N   0  0  0  0  0  0  0  0  0  0  0  0
   -2.9155  -19.4674   30.0464 C   0  0  0  0  0  0  0  0  0  0  0  0
   -0.3325  -15.8349   28.6238 H   0  0  0  0  0  0  0  0  0  0  0  0
   -1.0917  -15.8924   30.3207 H   0  0  0  0  0  0  0  0  0  0  0  0
    0.0561  -14.6078   29.5707 H   0  0  0  0  0  0  0  0  0  0  0  0
    1.4615  -16.9830   29.7552 H   0  0  0  0  0  0  0  0  0  0  0  0
    1.1846  -14.1167   28.0032 H   0  0  0  0  0  0  0  0  0  0  0  0
    4.2617  -13.1208   26.1049 H   0  0  0  0  0  0  0  0  0  0  0  0
    5.1258  -12.6196   27.9633 H   0  0  0  0  0  0  0  0  0  0  0  0
    9.1510  -13.0806   27.3895 H   0  0  0  0  0  0  0  0  0  0  0  0
    9.5647  -12.4558   23.3082 H   0  0  0  0  0  0  0  0  0  0  0  0
    7.2469  -13.3128   23.5946 H   0  0  0  0  0  0  0  0  0  0  0  0
   -0.7256  -18.8610   28.4969 H   0  0  0  0  0  0  0  0  0  0  0  0
   -3.6284  -19.1971   28.7085 H   0  0  0  0  0  0  0  0  0  0  0  0
   -2.2494  -17.8710   28.1724 H   0  0  0  0  0  0  0  0  0  0  0  0
   -3.5071  -16.9819   31.4288 H   0  0  0  0  0  0  0  0  0  0  0  0
   -5.0160  -17.2844   30.2968 H   0  0  0  0  0  0  0  0  0  0  0  0
   -3.8070  -18.3968   32.3765 H   0  0  0  0  0  0  0  0  0  0  0  0
   -5.5277  -17.9924   31.9988 H   0  0  0  0  0  0  0  0  0  0  0  0
   -7.7066  -22.7863   29.3978 H   0  0  0  0  0  0  0  0  0  0  0  0
   -8.9278  -23.1609   31.6908 H   0  0  0  0  0  0  0  0  0  0  0  0
   -7.3272  -22.6769   33.6662 H   0  0  0  0  0  0  0  0  0  0  0  0
   -3.2192  -20.5173   29.6044 H   0  0  0  0  0  0  0  0  0  0  0  0
   -2.6377  -20.0431   31.0155 H   0  0  0  0  0  0  0  0  0  0  0  0
  1  2  1  0
  2  3  1  0
  3  4  1  0
  4  5  2  0
  4  6  1  0
  6  7  1  0
  7  8  2  0
  8  9  1  0
  9 10  2  0
 10 11  1  0
  2 12  1  0
 12 13  1  0
 13 14  1  0
 14 15  1  0
 15 16  1  0
 16 17  1  0
 17 18  2  0
 18 19  1  0
 19 20  2  0
 20 21  1  0
 21 22  2  0
 16 23  1  0
 11  7  1  0
 23 12  1  0
 22 17  1  0
  1 24  1  0
  1 25  1  0
  1 26  1  0
  2 27  1  0
  3 28  1  0
  6 29  1  0
  6 30  1  0
  8 31  1  0
 10 32  1  0
 11 33  1  0
 12 34  1  0
 13 35  1  0
 13 36  1  0
 14 37  1  0
 14 38  1  0
 15 39  1  0
 15 40  1  0
 19 41  1  0
 20 42  1  0
 21 43  1  0
 23 44  1  0
 23 45  1  0
M  END
>  <Energy>  (931) 
2450.2032016438584

>  <compound_id>  (931) 
25267

>  <target_id>  (931) 
1

>  <reference_id>  (931) 
54

>  <inspiration_ids>  (931) 
[80, 54]

>  <energy_score>  (931) 
2469.665568192666

>  <distance_score>  (931) 
10.59955845196332

>  <path>  (931) 
/opt/xchem-fragalysis-2/maxwin/BulkDock/SCRATCH/511021/C25267-P54/C25267-P54.minimised.mol

>  <scratch_subdir>  (931) 
/opt/xchem-fragalysis-2/maxwin/BulkDock/SCRATCH/511021/C25267-P54

>  <fragmenstein_runtime>  (931) 
32.03660607337952

>  <fragmenstein_outcome>  (931) 
too moved

>  <fragmenstein_mode>  (931) 
expansion

>  <fragmenstein_error>  (931) 


$$$$
C28740-P80
     RDKit          3D

 44 46  0  0  0  0  0  0  0  0999 V2000
   -2.6258  -13.7742   29.5063 O   0  0  0  0  0  0  0  0  0  0  0  0
   -3.3930  -12.9034   29.7935 C   0  0  0  0  0  0  0  0  0  0  0  0
   -2.5051  -11.3448   30.0048 C   0  0  0  0  0  0  0  0  0  0  0  0
   -0.9891  -10.3306   29.6161 C   0  0  0  0  0  0  0  0  0  0  0  0
   -0.0339  -10.1472   28.5823 C   0  0  0  0  0  0  0  0  0  0  0  0
   -0.0158   -8.8491   28.1081 N   0  0  0  0  0  0  0  0  0  0  0  0
   -0.4823   -8.1826   29.1313 C   0  0  0  0  0  0  0  0  0  0  0  0
   -0.7059   -9.0605   30.1873 N   0  0  0  0  0  0  0  0  0  0  0  0
   -4.8953  -13.0387   30.0792 N   0  0  0  0  0  0  0  0  0  0  0  0
   -5.9373  -14.4792   30.1973 C   0  0  0  0  0  0  0  0  0  0  0  0
   -5.6505  -16.5065   30.2702 C   0  0  0  0  0  0  0  0  0  0  0  0
   -6.6196  -18.2487   30.6774 N   0  0  0  0  0  0  0  0  0  0  0  0
   -7.8461  -18.2460   29.2231 C   0  0  0  0  0  0  0  0  0  0  0  0
   -8.7523  -19.4317   28.7773 C   0  0  0  0  0  0  0  0  0  0  0  0
   -9.6047  -20.5228   30.4741 N   0  0  0  0  0  0  0  0  0  0  0  0
  -10.7861  -21.2651   30.3869 C   0  0  0  0  0  0  0  0  0  0  0  0
  -11.1342  -21.6710   29.1554 N   0  0  0  0  0  0  0  0  0  0  0  0
  -11.5316  -22.9382   29.0228 C   0  0  0  0  0  0  0  0  0  0  0  0
  -11.6622  -23.7697   30.0974 C   0  0  0  0  0  0  0  0  0  0  0  0
  -11.5769  -23.1737   31.3331 C   0  0  0  0  0  0  0  0  0  0  0  0
  -11.1630  -21.9083   31.5016 N   0  0  0  0  0  0  0  0  0  0  0  0
   -8.2894  -20.7275   32.2096 C   0  0  0  0  0  0  0  0  0  0  0  0
   -6.1373  -20.0858   31.6183 C   0  0  0  0  0  0  0  0  0  0  0  0
   -2.8604  -11.1955   29.0118 H   0  0  0  0  0  0  0  0  0  0  0  0
   -2.9208  -10.7898   30.8364 H   0  0  0  0  0  0  0  0  0  0  0  0
    0.5870  -10.8606   28.0732 H   0  0  0  0  0  0  0  0  0  0  0  0
   -0.6117   -7.1125   29.2180 H   0  0  0  0  0  0  0  0  0  0  0  0
   -1.0359   -8.7600   31.0930 H   0  0  0  0  0  0  0  0  0  0  0  0
   -5.2523  -12.1410   30.3736 H   0  0  0  0  0  0  0  0  0  0  0  0
   -6.4104  -14.2982   29.2142 H   0  0  0  0  0  0  0  0  0  0  0  0
   -6.6223  -14.1265   30.9781 H   0  0  0  0  0  0  0  0  0  0  0  0
   -4.7197  -16.5259   29.7147 H   0  0  0  0  0  0  0  0  0  0  0  0
   -5.9680  -16.5914   29.2381 H   0  0  0  0  0  0  0  0  0  0  0  0
   -8.4977  -17.5078   29.3552 H   0  0  0  0  0  0  0  0  0  0  0  0
   -7.4837  -17.5763   28.4357 H   0  0  0  0  0  0  0  0  0  0  0  0
   -9.2821  -18.7205   28.1653 H   0  0  0  0  0  0  0  0  0  0  0  0
   -7.9114  -19.9546   28.1604 H   0  0  0  0  0  0  0  0  0  0  0  0
  -11.6735  -23.2785   28.0033 H   0  0  0  0  0  0  0  0  0  0  0  0
  -11.8297  -24.8245   29.9955 H   0  0  0  0  0  0  0  0  0  0  0  0
  -11.7815  -23.7266   32.2456 H   0  0  0  0  0  0  0  0  0  0  0  0
   -8.8641  -19.9443   32.8539 H   0  0  0  0  0  0  0  0  0  0  0  0
   -8.2319  -21.4459   33.1044 H   0  0  0  0  0  0  0  0  0  0  0  0
   -5.7761  -19.6202   32.6087 H   0  0  0  0  0  0  0  0  0  0  0  0
   -5.1596  -20.4723   31.4197 H   0  0  0  0  0  0  0  0  0  0  0  0
  1  2  2  0
  2  3  1  0
  3  4  1  0
  4  5  2  0
  5  6  1  0
  6  7  2  0
  7  8  1  0
  2  9  1  0
  9 10  1  0
 10 11  1  0
 11 12  1  0
 12 13  1  0
 13 14  1  0
 14 15  1  0
 15 16  1  0
 16 17  2  0
 17 18  1  0
 18 19  2  0
 19 20  1  0
 20 21  2  0
 15 22  1  0
 22 23  1  0
  8  4  1  0
 23 12  1  0
 21 16  1  0
  3 24  1  0
  3 25  1  0
  5 26  1  0
  7 27  1  0
  8 28  1  0
  9 29  1  0
 10 30  1  0
 10 31  1  0
 11 32  1  0
 11 33  1  0
 13 34  1  0
 13 35  1  0
 14 36  1  0
 14 37  1  0
 18 38  1  0
 19 39  1  0
 20 40  1  0
 22 41  1  0
 22 42  1  0
 23 43  1  0
 23 44  1  0
M  END
>  <Energy>  (932) 
1227.0294424980784

>  <compound_id>  (932) 
28740

>  <target_id>  (932) 
1

>  <reference_id>  (932) 
80

>  <inspiration_ids>  (932) 
[80, 54]

>  <energy_score>  (932) 
1166.1766337967592

>  <distance_score>  (932) 
11.885508771099188

>  <path>  (932) 
/opt/xchem-fragalysis-2/maxwin/BulkDock/SCRATCH/511021/C28740-P80/C28740-P80.minimised.mol

>  <scratch_subdir>  (932) 
/opt/xchem-fragalysis-2/maxwin/BulkDock/SCRATCH/511021/C28740-P80

>  <fragmenstein_runtime>  (932) 
30.23425841331482

>  <fragmenstein_outcome>  (932) 
too moved

>  <fragmenstein_mode>  (932) 
expansion

>  <fragmenstein_error>  (932) 


$$$$
C28740-P54
     RDKit          3D

 44 46  0  0  0  0  0  0  0  0999 V2000
    0.2488  -15.3688   25.8622 O   0  0  0  0  0  0  0  0  0  0  0  0
    0.9187  -14.8398   26.7117 C   0  0  0  0  0  0  0  0  0  0  0  0
    2.3675  -13.6823   25.8925 C   0  0  0  0  0  0  0  0  0  0  0  0
    3.3590  -12.3072   24.7316 C   0  0  0  0  0  0  0  0  0  0  0  0
    4.2161  -10.9776   24.6955 C   0  0  0  0  0  0  0  0  0  0  0  0
    5.0095  -10.6033   23.4544 N   0  0  0  0  0  0  0  0  0  0  0  0
    4.6352  -11.4717   22.5573 C   0  0  0  0  0  0  0  0  0  0  0  0
    3.7827  -12.4159   23.1444 N   0  0  0  0  0  0  0  0  0  0  0  0
    0.7171  -15.2226   28.4839 N   0  0  0  0  0  0  0  0  0  0  0  0
   -0.3712  -16.5337   29.3905 C   0  0  0  0  0  0  0  0  0  0  0  0
   -2.2006  -17.7472   29.5706 C   0  0  0  0  0  0  0  0  0  0  0  0
   -4.0517  -17.9186   30.6908 N   0  0  0  0  0  0  0  0  0  0  0  0
   -5.4293  -17.5850   31.9494 C   0  0  0  0  0  0  0  0  0  0  0  0
   -6.8218  -18.6478   33.0387 C   0  0  0  0  0  0  0  0  0  0  0  0
   -6.7938  -20.6459   32.8066 N   0  0  0  0  0  0  0  0  0  0  0  0
   -7.9660  -21.4295   32.8828 C   0  0  0  0  0  0  0  0  0  0  0  0
   -9.1248  -20.8051   33.1515 N   0  0  0  0  0  0  0  0  0  0  0  0
  -10.2778  -21.4145   32.8135 C   0  0  0  0  0  0  0  0  0  0  0  0
  -10.3280  -22.6452   32.2228 C   0  0  0  0  0  0  0  0  0  0  0  0
   -9.1190  -23.2683   32.0990 C   0  0  0  0  0  0  0  0  0  0  0  0
   -7.9464  -22.6919   32.4292 N   0  0  0  0  0  0  0  0  0  0  0  0
   -5.0311  -21.0089   32.0647 C   0  0  0  0  0  0  0  0  0  0  0  0
   -3.6890  -19.7015   31.4965 C   0  0  0  0  0  0  0  0  0  0  0  0
    1.5056  -13.1217   25.6304 H   0  0  0  0  0  0  0  0  0  0  0  0
    2.8276  -14.5219   25.3400 H   0  0  0  0  0  0  0  0  0  0  0  0
    4.4796  -10.2423   25.4562 H   0  0  0  0  0  0  0  0  0  0  0  0
    4.9647  -11.5513   21.5311 H   0  0  0  0  0  0  0  0  0  0  0  0
    3.7970  -13.2705   22.6483 H   0  0  0  0  0  0  0  0  0  0  0  0
    1.4266  -14.7360   29.0040 H   0  0  0  0  0  0  0  0  0  0  0  0
    0.0336  -17.2235   28.6296 H   0  0  0  0  0  0  0  0  0  0  0  0
    0.0833  -16.4978   30.3406 H   0  0  0  0  0  0  0  0  0  0  0  0
   -1.7081  -18.7774   29.5936 H   0  0  0  0  0  0  0  0  0  0  0  0
   -2.2426  -18.0700   28.5349 H   0  0  0  0  0  0  0  0  0  0  0  0
   -4.8087  -17.0843   32.6946 H   0  0  0  0  0  0  0  0  0  0  0  0
   -5.9768  -16.7688   31.4800 H   0  0  0  0  0  0  0  0  0  0  0  0
   -7.1798  -18.7332   33.9970 H   0  0  0  0  0  0  0  0  0  0  0  0
   -7.8054  -18.5354   32.6317 H   0  0  0  0  0  0  0  0  0  0  0  0
  -11.1807  -20.8462   33.0176 H   0  0  0  0  0  0  0  0  0  0  0  0
  -11.2543  -23.0921   31.9048 H   0  0  0  0  0  0  0  0  0  0  0  0
   -9.0398  -24.2717   31.6948 H   0  0  0  0  0  0  0  0  0  0  0  0
   -4.5229  -21.6940   32.7141 H   0  0  0  0  0  0  0  0  0  0  0  0
   -5.1624  -21.6160   31.1807 H   0  0  0  0  0  0  0  0  0  0  0  0
   -3.0129  -20.2181   30.8031 H   0  0  0  0  0  0  0  0  0  0  0  0
   -3.5069  -19.0132   32.2832 H   0  0  0  0  0  0  0  0  0  0  0  0
  1  2  2  0
  2  3  1  0
  3  4  1  0
  4  5  2  0
  5  6  1  0
  6  7  2  0
  7  8  1  0
  2  9  1  0
  9 10  1  0
 10 11  1  0
 11 12  1  0
 12 13  1  0
 13 14  1  0
 14 15  1  0
 15 16  1  0
 16 17  2  0
 17 18  1  0
 18 19  2  0
 19 20  1  0
 20 21  2  0
 15 22  1  0
 22 23  1  0
  8  4  1  0
 23 12  1  0
 21 16  1  0
  3 24  1  0
  3 25  1  0
  5 26  1  0
  7 27  1  0
  8 28  1  0
  9 29  1  0
 10 30  1  0
 10 31  1  0
 11 32  1  0
 11 33  1  0
 13 34  1  0
 13 35  1  0
 14 36  1  0
 14 37  1  0
 18 38  1  0
 19 39  1  0
 20 40  1  0
 22 41  1  0
 22 42  1  0
 23 43  1  0
 23 44  1  0
M  END
>  <Energy>  (933) 
1266.3808163232447

>  <compound_id>  (933) 
28740

>  <target_id>  (933) 
1

>  <reference_id>  (933) 
54

>  <inspiration_ids>  (933) 
[80, 54]

>  <energy_score>  (933) 
1205.5280076219415

>  <distance_score>  (933) 
9.861414946968326

>  <path>  (933) 
/opt/xchem-fragalysis-2/maxwin/BulkDock/SCRATCH/511021/C28740-P54/C28740-P54.minimised.mol

>  <scratch_subdir>  (933) 
/opt/xchem-fragalysis-2/maxwin/BulkDock/SCRATCH/511021/C28740-P54

>  <fragmenstein_runtime>  (933) 
22.103199243545532

>  <fragmenstein_outcome>  (933) 
too moved

>  <fragmenstein_mode>  (933) 
expansion

>  <fragmenstein_error>  (933) 


$$$$
C50842-P80
     RDKit          3D

 26 27  0  0  0  0  0  0  0  0999 V2000
   -1.4734  -19.2428   17.3075 N   0  0  0  0  0  0  0  0  0  0  0  0
   -1.2286  -18.4423   18.1301 C   0  0  0  0  0  0  0  0  0  0  0  0
   -1.1015  -17.4460   19.4113 C   0  0  0  0  0  0  0  0  0  0  0  0
    0.5790  -16.3031   19.7182 C   0  0  0  0  0  0  0  0  0  0  0  0
    1.9864  -15.1292   18.7102 C   0  0  0  0  0  0  0  0  0  0  0  0
    3.3214  -14.7553   19.0921 C   0  0  0  0  0  0  0  0  0  0  0  0
    3.9813  -14.2264   18.0024 N   0  0  0  0  0  0  0  0  0  0  0  0
    3.0524  -14.0450   17.0417 C   0  0  0  0  0  0  0  0  0  0  0  0
    1.8490  -14.3123   17.5220 N   0  0  0  0  0  0  0  0  0  0  0  0
   -2.2019  -17.8815   20.2828 N   0  0  0  0  0  0  0  0  0  0  0  0
   -3.3837  -18.5322   19.5268 C   0  0  0  0  0  0  0  0  0  0  0  0
   -3.4677  -19.9312   19.4133 C   0  0  0  0  0  0  0  0  0  0  0  0
   -4.7138  -20.5210   19.2660 C   0  0  0  0  0  0  0  0  0  0  0  0
   -5.8502  -19.8253   19.2018 N   0  0  0  0  0  0  0  0  0  0  0  0
   -5.6754  -18.5023   19.2394 C   0  0  0  0  0  0  0  0  0  0  0  0
   -4.5020  -17.8200   19.3614 N   0  0  0  0  0  0  0  0  0  0  0  0
   -1.7581  -16.5882   19.0907 H   0  0  0  0  0  0  0  0  0  0  0  0
   -0.2821  -15.6608   19.6981 H   0  0  0  0  0  0  0  0  0  0  0  0
    0.7131  -16.2674   20.7743 H   0  0  0  0  0  0  0  0  0  0  0  0
    3.8710  -14.8072   20.0081 H   0  0  0  0  0  0  0  0  0  0  0  0
    4.9595  -13.9726   17.9541 H   0  0  0  0  0  0  0  0  0  0  0  0
    3.2686  -13.6414   16.0599 H   0  0  0  0  0  0  0  0  0  0  0  0
   -2.6369  -17.0099   20.6183 H   0  0  0  0  0  0  0  0  0  0  0  0
   -2.6261  -20.5920   19.5157 H   0  0  0  0  0  0  0  0  0  0  0  0
   -4.8179  -21.6004   19.2204 H   0  0  0  0  0  0  0  0  0  0  0  0
   -6.5779  -17.9063   19.1750 H   0  0  0  0  0  0  0  0  0  0  0  0
  1  2  3  0
  2  3  1  0
  3  4  1  0
  4  5  1  0
  5  6  2  0
  6  7  1  0
  7  8  1  0
  8  9  2  0
  3 10  1  0
 10 11  1  0
 11 12  2  0
 12 13  1  0
 13 14  2  0
 14 15  1  0
 15 16  2  0
  9  5  1  0
 16 11  1  0
  3 17  1  0
  4 18  1  0
  4 19  1  0
  6 20  1  0
  7 21  1  0
  8 22  1  0
 10 23  1  0
 12 24  1  0
 13 25  1  0
 15 26  1  0
M  END
>  <Energy>  (934) 
264.90562082057096

>  <compound_id>  (934) 
50842

>  <target_id>  (934) 
1

>  <reference_id>  (934) 
80

>  <inspiration_ids>  (934) 
[80, 54]

>  <energy_score>  (934) 
271.4908870241475

>  <distance_score>  (934) 
14.413425448899316

>  <path>  (934) 
/opt/xchem-fragalysis-2/maxwin/BulkDock/SCRATCH/511021/C50842-P80/C50842-P80.minimised.mol

>  <scratch_subdir>  (934) 
/opt/xchem-fragalysis-2/maxwin/BulkDock/SCRATCH/511021/C50842-P80

>  <fragmenstein_runtime>  (934) 
14.179916143417358

>  <fragmenstein_outcome>  (934) 
too moved

>  <fragmenstein_mode>  (934) 
expansion

>  <fragmenstein_error>  (934) 


$$$$
C50842-P54
     RDKit          3D

 26 27  0  0  0  0  0  0  0  0999 V2000
    3.7645  -12.9139   21.2363 N   0  0  0  0  0  0  0  0  0  0  0  0
    2.7095  -12.4207   21.2873 C   0  0  0  0  0  0  0  0  0  0  0  0
    1.3749  -11.6161   21.4820 C   0  0  0  0  0  0  0  0  0  0  0  0
    2.0237  -10.4740   20.3653 C   0  0  0  0  0  0  0  0  0  0  0  0
    3.4872  -10.2071   19.8573 C   0  0  0  0  0  0  0  0  0  0  0  0
    4.1502  -10.6838   18.7432 C   0  0  0  0  0  0  0  0  0  0  0  0
    5.3355  -10.0008   18.6689 N   0  0  0  0  0  0  0  0  0  0  0  0
    5.3575   -9.1030   19.6937 C   0  0  0  0  0  0  0  0  0  0  0  0
    4.2532   -9.1665   20.4035 N   0  0  0  0  0  0  0  0  0  0  0  0
   -0.3556  -12.5640   21.4611 N   0  0  0  0  0  0  0  0  0  0  0  0
   -1.6658  -13.1142   22.5927 C   0  0  0  0  0  0  0  0  0  0  0  0
   -2.2671  -12.4644   23.6501 C   0  0  0  0  0  0  0  0  0  0  0  0
   -2.3506  -13.1316   25.1697 C   0  0  0  0  0  0  0  0  0  0  0  0
   -2.5403  -14.4899   25.4553 N   0  0  0  0  0  0  0  0  0  0  0  0
   -2.7871  -15.0274   24.2171 C   0  0  0  0  0  0  0  0  0  0  0  0
   -2.5813  -14.1772   22.7772 N   0  0  0  0  0  0  0  0  0  0  0  0
    1.2391  -11.1089   22.4222 H   0  0  0  0  0  0  0  0  0  0  0  0
    1.3649  -10.2600   19.5454 H   0  0  0  0  0  0  0  0  0  0  0  0
    2.0668   -9.6662   21.0365 H   0  0  0  0  0  0  0  0  0  0  0  0
    3.8799  -11.4312   18.0110 H   0  0  0  0  0  0  0  0  0  0  0  0
    6.0633  -10.1583   17.9865 H   0  0  0  0  0  0  0  0  0  0  0  0
    6.1923   -8.4441   19.8811 H   0  0  0  0  0  0  0  0  0  0  0  0
   -0.6992  -13.0286   20.5894 H   0  0  0  0  0  0  0  0  0  0  0  0
   -2.6212  -11.4731   23.4201 H   0  0  0  0  0  0  0  0  0  0  0  0
   -2.0488  -12.5951   26.0603 H   0  0  0  0  0  0  0  0  0  0  0  0
   -2.4868  -16.0696   24.1925 H   0  0  0  0  0  0  0  0  0  0  0  0
  1  2  3  0
  2  3  1  0
  3  4  1  0
  4  5  1  0
  5  6  2  0
  6  7  1  0
  7  8  1  0
  8  9  2  0
  3 10  1  0
 10 11  1  0
 11 12  2  0
 12 13  1  0
 13 14  2  0
 14 15  1  0
 15 16  2  0
  9  5  1  0
 16 11  1  0
  3 17  1  0
  4 18  1  0
  4 19  1  0
  6 20  1  0
  7 21  1  0
  8 22  1  0
 10 23  1  0
 12 24  1  0
 13 25  1  0
 15 26  1  0
M  END
>  <Energy>  (935) 
364.26977876514349

>  <compound_id>  (935) 
50842

>  <target_id>  (935) 
1

>  <reference_id>  (935) 
54

>  <inspiration_ids>  (935) 
[80, 54]

>  <energy_score>  (935) 
370.85504496871647

>  <distance_score>  (935) 
13.428603896968767

>  <path>  (935) 
/opt/xchem-fragalysis-2/maxwin/BulkDock/SCRATCH/511021/C50842-P54/C50842-P54.minimised.mol

>  <scratch_subdir>  (935) 
/opt/xchem-fragalysis-2/maxwin/BulkDock/SCRATCH/511021/C50842-P54

>  <fragmenstein_runtime>  (935) 
8.125776529312134

>  <fragmenstein_outcome>  (935) 
too moved

>  <fragmenstein_mode>  (935) 
expansion

>  <fragmenstein_error>  (935) 


$$$$
C50843-P80
     RDKit          3D

 43 44  0  0  0  0  0  0  0  0999 V2000
   -5.2241  -22.7542   27.1844 C   0  0  0  0  0  0  0  0  0  0  0  0
   -4.2379  -21.8374   26.6588 C   0  0  0  0  0  0  0  0  0  0  0  0
   -3.4570  -21.0149   27.3116 N   0  0  0  0  0  0  0  0  0  0  0  0
   -2.7267  -20.3425   26.3384 C   0  0  0  0  0  0  0  0  0  0  0  0
   -1.6087  -19.3323   26.8286 C   0  0  0  0  0  0  0  0  0  0  0  0
   -0.0757  -18.4939   26.4037 C   0  0  0  0  0  0  0  0  0  0  0  0
    0.2474  -17.7789   27.3240 O   0  0  0  0  0  0  0  0  0  0  0  0
    0.9143  -18.4751   24.7561 N   0  0  0  0  0  0  0  0  0  0  0  0
    2.4781  -17.2551   24.1357 C   0  0  0  0  0  0  0  0  0  0  0  0
    1.6887  -15.2494   23.4961 C   0  0  0  0  0  0  0  0  0  0  0  0
    3.1484  -15.3604   23.4217 C   0  0  0  0  0  0  0  0  0  0  0  0
    3.3512  -14.3997   21.8726 N   0  0  0  0  0  0  0  0  0  0  0  0
    3.7071  -12.8969   21.6449 C   0  0  0  0  0  0  0  0  0  0  0  0
    3.8000  -11.9728   22.4420 O   0  0  0  0  0  0  0  0  0  0  0  0
    4.2174  -12.6160   20.0637 C   0  0  0  0  0  0  0  0  0  0  0  0
    5.9400  -12.0554   20.3183 C   0  0  0  0  0  0  0  0  0  0  0  0
    6.5356  -11.0907   19.6565 C   0  0  0  0  0  0  0  0  0  0  0  0
    7.8167  -10.4282   19.6810 N   0  0  0  0  0  0  0  0  0  0  0  0
    8.7349  -10.9290   20.4611 C   0  0  0  0  0  0  0  0  0  0  0  0
    8.2900  -11.9678   21.1664 C   0  0  0  0  0  0  0  0  0  0  0  0
    6.9539  -12.4931   21.0474 N   0  0  0  0  0  0  0  0  0  0  0  0
   -3.0743  -20.8884   25.1007 C   0  0  0  0  0  0  0  0  0  0  0  0
   -4.0191  -21.8199   25.3221 N   0  0  0  0  0  0  0  0  0  0  0  0
   -5.6538  -23.2924   26.3450 H   0  0  0  0  0  0  0  0  0  0  0  0
   -4.6941  -23.4183   27.8601 H   0  0  0  0  0  0  0  0  0  0  0  0
   -6.0550  -22.2655   27.6779 H   0  0  0  0  0  0  0  0  0  0  0  0
   -2.1844  -18.4582   27.1663 H   0  0  0  0  0  0  0  0  0  0  0  0
   -1.2855  -19.8002   27.7793 H   0  0  0  0  0  0  0  0  0  0  0  0
    0.5458  -19.2022   24.1365 H   0  0  0  0  0  0  0  0  0  0  0  0
    3.1739  -17.8532   23.5766 H   0  0  0  0  0  0  0  0  0  0  0  0
    2.2120  -13.9882   23.5568 H   0  0  0  0  0  0  0  0  0  0  0  0
    0.8265  -14.9509   22.4396 H   0  0  0  0  0  0  0  0  0  0  0  0
    0.7606  -14.5585   24.1686 H   0  0  0  0  0  0  0  0  0  0  0  0
    3.6996  -14.6798   24.1832 H   0  0  0  0  0  0  0  0  0  0  0  0
    4.1469  -15.7889   23.4091 H   0  0  0  0  0  0  0  0  0  0  0  0
    3.2708  -14.8397   21.0119 H   0  0  0  0  0  0  0  0  0  0  0  0
    4.8383  -13.4613   19.8092 H   0  0  0  0  0  0  0  0  0  0  0  0
    3.9121  -12.6734   19.0164 H   0  0  0  0  0  0  0  0  0  0  0  0
    5.8492  -10.6266   19.0458 H   0  0  0  0  0  0  0  0  0  0  0  0
    9.7249  -10.5105   20.4881 H   0  0  0  0  0  0  0  0  0  0  0  0
    8.9626  -12.4971   21.8340 H   0  0  0  0  0  0  0  0  0  0  0  0
   -2.6708  -20.7771   24.1061 H   0  0  0  0  0  0  0  0  0  0  0  0
   -4.4673  -22.4041   24.6269 H   0  0  0  0  0  0  0  0  0  0  0  0
  1  2  1  0
  2  3  2  0
  3  4  1  0
  4  5  1  0
  5  6  1  0
  6  7  2  0
  6  8  1  0
  8  9  1  0
  9 10  1  0
  9 11  1  0
 11 12  1  0
 12 13  1  0
 13 14  2  0
 13 15  1  0
 15 16  1  0
 16 17  2  0
 17 18  1  0
 18 19  2  0
 19 20  1  0
 20 21  2  0
  4 22  2  0
 22 23  1  0
 23  2  1  0
 21 16  1  0
  1 24  1  0
  1 25  1  0
  1 26  1  0
  5 27  1  0
  5 28  1  0
  8 29  1  0
  9 30  1  0
 10 31  1  0
 10 32  1  0
 10 33  1  0
 11 34  1  0
 11 35  1  0
 12 36  1  0
 15 37  1  0
 15 38  1  0
 17 39  1  0
 19 40  1  0
 20 41  1  0
 22 42  1  0
 23 43  1  0
M  END
>  <Energy>  (936) 
1047.5323440225739

>  <compound_id>  (936) 
50843

>  <target_id>  (936) 
1

>  <reference_id>  (936) 
80

>  <inspiration_ids>  (936) 
[80, 54]

>  <energy_score>  (936) 
955.4443796413946

>  <distance_score>  (936) 
10.04523944724251

>  <path>  (936) 
/opt/xchem-fragalysis-2/maxwin/BulkDock/SCRATCH/511021/C50843-P80/C50843-P80.minimised.mol

>  <scratch_subdir>  (936) 
/opt/xchem-fragalysis-2/maxwin/BulkDock/SCRATCH/511021/C50843-P80

>  <fragmenstein_runtime>  (936) 
31.244874000549316

>  <fragmenstein_outcome>  (936) 
too moved

>  <fragmenstein_mode>  (936) 
expansion

>  <fragmenstein_error>  (936) 


$$$$
C50843-P54
     RDKit          3D

 43 44  0  0  0  0  0  0  0  0999 V2000
   -5.4828  -15.4757   30.5019 C   0  0  0  0  0  0  0  0  0  0  0  0
   -5.0405  -14.0752   30.2427 C   0  0  0  0  0  0  0  0  0  0  0  0
   -3.8153  -13.5866   30.2928 N   0  0  0  0  0  0  0  0  0  0  0  0
   -3.8831  -12.2279   29.9467 C   0  0  0  0  0  0  0  0  0  0  0  0
   -2.5814  -11.4198   29.8524 C   0  0  0  0  0  0  0  0  0  0  0  0
   -2.5472   -9.8430   29.7377 C   0  0  0  0  0  0  0  0  0  0  0  0
   -3.5470   -9.1864   29.8423 O   0  0  0  0  0  0  0  0  0  0  0  0
   -1.1313   -9.4256   29.5564 N   0  0  0  0  0  0  0  0  0  0  0  0
   -0.5014   -8.0643   29.5467 C   0  0  0  0  0  0  0  0  0  0  0  0
   -1.1362   -7.1598   30.6015 C   0  0  0  0  0  0  0  0  0  0  0  0
   -0.3532   -7.2965   28.1643 C   0  0  0  0  0  0  0  0  0  0  0  0
    0.9803   -6.6999   27.8476 N   0  0  0  0  0  0  0  0  0  0  0  0
    1.7342   -6.6361   26.5787 C   0  0  0  0  0  0  0  0  0  0  0  0
    1.4977   -7.1184   25.5025 O   0  0  0  0  0  0  0  0  0  0  0  0
    3.0078   -5.7416   26.7421 C   0  0  0  0  0  0  0  0  0  0  0  0
    3.8860   -5.5166   25.4942 C   0  0  0  0  0  0  0  0  0  0  0  0
    4.7357   -6.5060   24.9973 C   0  0  0  0  0  0  0  0  0  0  0  0
    5.5401   -6.3403   23.9091 N   0  0  0  0  0  0  0  0  0  0  0  0
    5.5024   -5.1195   23.3369 C   0  0  0  0  0  0  0  0  0  0  0  0
    4.6972   -4.1108   23.8234 C   0  0  0  0  0  0  0  0  0  0  0  0
    3.8749   -4.2882   24.8956 N   0  0  0  0  0  0  0  0  0  0  0  0
   -5.2061  -11.9224   29.7019 C   0  0  0  0  0  0  0  0  0  0  0  0
   -5.9193  -13.0823   29.8933 N   0  0  0  0  0  0  0  0  0  0  0  0
   -4.6268  -16.1081   30.7545 H   0  0  0  0  0  0  0  0  0  0  0  0
   -5.9587  -15.8781   29.6049 H   0  0  0  0  0  0  0  0  0  0  0  0
   -6.1901  -15.5002   31.3348 H   0  0  0  0  0  0  0  0  0  0  0  0
   -1.9952  -11.6683   30.7474 H   0  0  0  0  0  0  0  0  0  0  0  0
   -2.0387  -11.8168   28.9884 H   0  0  0  0  0  0  0  0  0  0  0  0
   -0.5366  -10.2445   29.5889 H   0  0  0  0  0  0  0  0  0  0  0  0
    0.5220   -8.2738   29.8850 H   0  0  0  0  0  0  0  0  0  0  0  0
   -1.1588   -7.6543   31.5786 H   0  0  0  0  0  0  0  0  0  0  0  0
   -2.1657   -6.9000   30.3346 H   0  0  0  0  0  0  0  0  0  0  0  0
   -0.5692   -6.2289   30.7071 H   0  0  0  0  0  0  0  0  0  0  0  0
   -0.6133   -7.9109   27.3134 H   0  0  0  0  0  0  0  0  0  0  0  0
   -1.0526   -6.4523   28.1446 H   0  0  0  0  0  0  0  0  0  0  0  0
    1.5173   -6.2441   28.5764 H   0  0  0  0  0  0  0  0  0  0  0  0
    2.6635   -4.7579   27.0858 H   0  0  0  0  0  0  0  0  0  0  0  0
    3.6357   -6.1598   27.5364 H   0  0  0  0  0  0  0  0  0  0  0  0
    4.7956   -7.4834   25.4651 H   0  0  0  0  0  0  0  0  0  0  0  0
    6.1402   -4.9732   22.4729 H   0  0  0  0  0  0  0  0  0  0  0  0
    4.6749   -3.1290   23.3641 H   0  0  0  0  0  0  0  0  0  0  0  0
   -5.6869  -11.0005   29.4054 H   0  0  0  0  0  0  0  0  0  0  0  0
   -6.9175  -13.1927   29.7926 H   0  0  0  0  0  0  0  0  0  0  0  0
  1  2  1  0
  2  3  2  0
  3  4  1  0
  4  5  1  0
  5  6  1  0
  6  7  2  0
  6  8  1  0
  8  9  1  0
  9 10  1  0
  9 11  1  0
 11 12  1  0
 12 13  1  0
 13 14  2  0
 13 15  1  0
 15 16  1  0
 16 17  2  0
 17 18  1  0
 18 19  2  0
 19 20  1  0
 20 21  2  0
  4 22  2  0
 22 23  1  0
 23  2  1  0
 21 16  1  0
  1 24  1  0
  1 25  1  0
  1 26  1  0
  5 27  1  0
  5 28  1  0
  8 29  1  0
  9 30  1  0
 10 31  1  0
 10 32  1  0
 10 33  1  0
 11 34  1  0
 11 35  1  0
 12 36  1  0
 15 37  1  0
 15 38  1  0
 17 39  1  0
 19 40  1  0
 20 41  1  0
 22 42  1  0
 23 43  1  0
M  END
>  <Energy>  (937) 
98.708776135187961

>  <compound_id>  (937) 
50843

>  <target_id>  (937) 
1

>  <reference_id>  (937) 
54

>  <inspiration_ids>  (937) 
[80, 54]

>  <energy_score>  (937) 
6.6208117540138005

>  <distance_score>  (937) 
12.044343739460421

>  <path>  (937) 
/opt/xchem-fragalysis-2/maxwin/BulkDock/SCRATCH/511021/C50843-P54/C50843-P54.minimised.mol

>  <scratch_subdir>  (937) 
/opt/xchem-fragalysis-2/maxwin/BulkDock/SCRATCH/511021/C50843-P54

>  <fragmenstein_runtime>  (937) 
38.369948387145996

>  <fragmenstein_outcome>  (937) 
too moved

>  <fragmenstein_mode>  (937) 
expansion

>  <fragmenstein_error>  (937) 


$$$$
C50844-P80
     RDKit          3D

 41 42  0  0  0  0  0  0  0  0999 V2000
    5.6654  -12.6487   12.2929 C   0  0  0  0  0  0  0  0  0  0  0  0
    4.8734  -11.4781   12.7337 C   0  0  0  0  0  0  0  0  0  0  0  0
    5.4801  -10.3414   13.2333 N   0  0  0  0  0  0  0  0  0  0  0  0
    4.5084   -9.4172   13.4587 C   0  0  0  0  0  0  0  0  0  0  0  0
    3.3238   -9.8969   13.1599 N   0  0  0  0  0  0  0  0  0  0  0  0
    3.5053  -11.2257   12.7623 C   0  0  0  0  0  0  0  0  0  0  0  0
    2.2564  -12.0310   12.3402 C   0  0  0  0  0  0  0  0  0  0  0  0
    2.1674  -13.5798   12.6130 C   0  0  0  0  0  0  0  0  0  0  0  0
    3.0901  -14.2599   12.2475 O   0  0  0  0  0  0  0  0  0  0  0  0
    0.8792  -13.9582   13.2153 N   0  0  0  0  0  0  0  0  0  0  0  0
    0.3532  -15.2924   13.6537 C   0  0  0  0  0  0  0  0  0  0  0  0
    0.7425  -16.3861   12.6584 C   0  0  0  0  0  0  0  0  0  0  0  0
   -1.2149  -15.3391   13.9005 C   0  0  0  0  0  0  0  0  0  0  0  0
   -1.7614  -16.4770   14.6886 N   0  0  0  0  0  0  0  0  0  0  0  0
   -2.9516  -16.5665   15.5583 C   0  0  0  0  0  0  0  0  0  0  0  0
   -3.7285  -15.7211   15.9073 O   0  0  0  0  0  0  0  0  0  0  0  0
   -3.1413  -18.0240   16.0805 C   0  0  0  0  0  0  0  0  0  0  0  0
   -4.0763  -18.2193   17.2116 N   0  0  0  0  0  0  0  0  0  0  0  0
   -3.7785  -18.2093   18.5497 C   0  0  0  0  0  0  0  0  0  0  0  0
   -4.7794  -18.7038   19.2469 N   0  0  0  0  0  0  0  0  0  0  0  0
   -5.6831  -19.0389   18.2891 C   0  0  0  0  0  0  0  0  0  0  0  0
   -5.2966  -18.7923   17.0320 N   0  0  0  0  0  0  0  0  0  0  0  0
    5.6387  -13.4410   13.0459 H   0  0  0  0  0  0  0  0  0  0  0  0
    5.2788  -13.0447   11.3490 H   0  0  0  0  0  0  0  0  0  0  0  0
    6.7143  -12.3791   12.1292 H   0  0  0  0  0  0  0  0  0  0  0  0
    6.4670  -10.2027   13.4126 H   0  0  0  0  0  0  0  0  0  0  0  0
    4.7206   -8.4310   13.8432 H   0  0  0  0  0  0  0  0  0  0  0  0
    1.3790  -11.5341   12.7679 H   0  0  0  0  0  0  0  0  0  0  0  0
    2.1594  -11.9181   11.2519 H   0  0  0  0  0  0  0  0  0  0  0  0
    0.3740  -13.1160   13.4773 H   0  0  0  0  0  0  0  0  0  0  0  0
    0.8561  -15.4985   14.6053 H   0  0  0  0  0  0  0  0  0  0  0  0
    1.8298  -16.4812   12.5798 H   0  0  0  0  0  0  0  0  0  0  0  0
    0.3537  -16.1643   11.6587 H   0  0  0  0  0  0  0  0  0  0  0  0
    0.3554  -17.3618   12.9683 H   0  0  0  0  0  0  0  0  0  0  0  0
   -1.7306  -15.3646   12.9331 H   0  0  0  0  0  0  0  0  0  0  0  0
   -1.5633  -14.4321   14.3980 H   0  0  0  0  0  0  0  0  0  0  0  0
   -1.3868  -17.4073   14.5411 H   0  0  0  0  0  0  0  0  0  0  0  0
   -2.1786  -18.4270   16.4128 H   0  0  0  0  0  0  0  0  0  0  0  0
   -3.5138  -18.6387   15.2535 H   0  0  0  0  0  0  0  0  0  0  0  0
   -2.8362  -17.8514   18.9416 H   0  0  0  0  0  0  0  0  0  0  0  0
   -6.6453  -19.4849   18.5054 H   0  0  0  0  0  0  0  0  0  0  0  0
  1  2  1  0
  2  3  1  0
  3  4  1  0
  4  5  2  0
  5  6  1  0
  6  7  1  0
  7  8  1  0
  8  9  2  0
  8 10  1  0
 10 11  1  0
 11 12  1  0
 11 13  1  0
 13 14  1  0
 14 15  1  0
 15 16  2  0
 15 17  1  0
 17 18  1  0
 18 19  1  0
 19 20  2  0
 20 21  1  0
 21 22  2  0
  6  2  2  0
 22 18  1  0
  1 23  1  0
  1 24  1  0
  1 25  1  0
  3 26  1  0
  4 27  1  0
  7 28  1  0
  7 29  1  0
 10 30  1  0
 11 31  1  0
 12 32  1  0
 12 33  1  0
 12 34  1  0
 13 35  1  0
 13 36  1  0
 14 37  1  0
 17 38  1  0
 17 39  1  0
 19 40  1  0
 21 41  1  0
M  END
>  <Energy>  (938) 
53.871398807781141

>  <compound_id>  (938) 
50844

>  <target_id>  (938) 
1

>  <reference_id>  (938) 
80

>  <inspiration_ids>  (938) 
[80, 54]

>  <energy_score>  (938) 
1.0279590823877243

>  <distance_score>  (938) 
13.59084607986303

>  <path>  (938) 
/opt/xchem-fragalysis-2/maxwin/BulkDock/SCRATCH/511021/C50844-P80/C50844-P80.minimised.mol

>  <scratch_subdir>  (938) 
/opt/xchem-fragalysis-2/maxwin/BulkDock/SCRATCH/511021/C50844-P80

>  <fragmenstein_runtime>  (938) 
39.09909129142761

>  <fragmenstein_outcome>  (938) 
too moved

>  <fragmenstein_mode>  (938) 
expansion

>  <fragmenstein_error>  (938) 


$$$$
C50844-P54
     RDKit          3D

 41 42  0  0  0  0  0  0  0  0999 V2000
    2.6094  -11.7684   24.5436 C   0  0  0  0  0  0  0  0  0  0  0  0
    1.1363  -11.3919   23.5089 C   0  0  0  0  0  0  0  0  0  0  0  0
    2.2472  -11.4640   22.1475 N   0  0  0  0  0  0  0  0  0  0  0  0
    1.4560  -11.1486   21.2278 C   0  0  0  0  0  0  0  0  0  0  0  0
    0.6728  -12.2408   21.3909 N   0  0  0  0  0  0  0  0  0  0  0  0
    0.0741  -12.3232   22.6133 C   0  0  0  0  0  0  0  0  0  0  0  0
   -1.6468  -12.9911   22.6923 C   0  0  0  0  0  0  0  0  0  0  0  0
   -2.8366  -14.4072   23.1563 C   0  0  0  0  0  0  0  0  0  0  0  0
   -3.9618  -14.2378   22.7132 O   0  0  0  0  0  0  0  0  0  0  0  0
   -2.1214  -15.8080   24.0399 N   0  0  0  0  0  0  0  0  0  0  0  0
   -2.7838  -17.5080   24.4676 C   0  0  0  0  0  0  0  0  0  0  0  0
   -1.7995  -17.0986   25.5596 C   0  0  0  0  0  0  0  0  0  0  0  0
   -4.5420  -18.5585   24.5205 C   0  0  0  0  0  0  0  0  0  0  0  0
   -5.6780  -18.6003   23.4686 N   0  0  0  0  0  0  0  0  0  0  0  0
   -6.3341  -19.7804   22.7557 C   0  0  0  0  0  0  0  0  0  0  0  0
   -6.1783  -20.9667   22.9022 O   0  0  0  0  0  0  0  0  0  0  0  0
   -7.2649  -19.2435   21.6009 C   0  0  0  0  0  0  0  0  0  0  0  0
   -8.6335  -19.7448   21.5542 N   0  0  0  0  0  0  0  0  0  0  0  0
   -9.0763  -21.0308   21.6122 C   0  0  0  0  0  0  0  0  0  0  0  0
  -10.3784  -21.0384   21.8054 N   0  0  0  0  0  0  0  0  0  0  0  0
  -10.7087  -19.7236   21.7959 C   0  0  0  0  0  0  0  0  0  0  0  0
   -9.6844  -18.8758   21.6520 N   0  0  0  0  0  0  0  0  0  0  0  0
    3.4412  -11.0850   24.6800 H   0  0  0  0  0  0  0  0  0  0  0  0
    2.2975  -12.2865   25.4395 H   0  0  0  0  0  0  0  0  0  0  0  0
    3.3458  -12.3588   23.9486 H   0  0  0  0  0  0  0  0  0  0  0  0
    3.1543  -11.1370   22.3986 H   0  0  0  0  0  0  0  0  0  0  0  0
    1.6430  -10.5497   20.3637 H   0  0  0  0  0  0  0  0  0  0  0  0
   -1.6643  -13.7830   21.9678 H   0  0  0  0  0  0  0  0  0  0  0  0
   -1.4369  -12.7195   21.6511 H   0  0  0  0  0  0  0  0  0  0  0  0
   -1.1446  -15.6673   24.1952 H   0  0  0  0  0  0  0  0  0  0  0  0
   -2.3599  -18.3196   23.8463 H   0  0  0  0  0  0  0  0  0  0  0  0
   -0.7941  -16.7541   25.3082 H   0  0  0  0  0  0  0  0  0  0  0  0
   -1.4839  -17.7694   26.3413 H   0  0  0  0  0  0  0  0  0  0  0  0
   -2.2237  -16.1063   25.8169 H   0  0  0  0  0  0  0  0  0  0  0  0
   -4.3688  -19.6451   24.4968 H   0  0  0  0  0  0  0  0  0  0  0  0
   -5.1026  -18.4031   25.4513 H   0  0  0  0  0  0  0  0  0  0  0  0
   -6.1061  -17.7391   23.1524 H   0  0  0  0  0  0  0  0  0  0  0  0
   -6.8143  -19.5301   20.6437 H   0  0  0  0  0  0  0  0  0  0  0  0
   -7.3241  -18.1506   21.6234 H   0  0  0  0  0  0  0  0  0  0  0  0
   -8.4210  -21.8900   21.5578 H   0  0  0  0  0  0  0  0  0  0  0  0
  -11.7259  -19.3708   21.9002 H   0  0  0  0  0  0  0  0  0  0  0  0
  1  2  1  0
  2  3  1  0
  3  4  1  0
  4  5  2  0
  5  6  1  0
  6  7  1  0
  7  8  1  0
  8  9  2  0
  8 10  1  0
 10 11  1  0
 11 12  1  0
 11 13  1  0
 13 14  1  0
 14 15  1  0
 15 16  2  0
 15 17  1  0
 17 18  1  0
 18 19  1  0
 19 20  2  0
 20 21  1  0
 21 22  2  0
  6  2  2  0
 22 18  1  0
  1 23  1  0
  1 24  1  0
  1 25  1  0
  3 26  1  0
  4 27  1  0
  7 28  1  0
  7 29  1  0
 10 30  1  0
 11 31  1  0
 12 32  1  0
 12 33  1  0
 12 34  1  0
 13 35  1  0
 13 36  1  0
 14 37  1  0
 17 38  1  0
 17 39  1  0
 19 40  1  0
 21 41  1  0
M  END
>  <Energy>  (939) 
684.32680950158226

>  <compound_id>  (939) 
50844

>  <target_id>  (939) 
1

>  <reference_id>  (939) 
54

>  <inspiration_ids>  (939) 
[80, 54]

>  <energy_score>  (939) 
631.4833697761878

>  <distance_score>  (939) 
12.804751702522166

>  <path>  (939) 
/opt/xchem-fragalysis-2/maxwin/BulkDock/SCRATCH/511021/C50844-P54/C50844-P54.minimised.mol

>  <scratch_subdir>  (939) 
/opt/xchem-fragalysis-2/maxwin/BulkDock/SCRATCH/511021/C50844-P54

>  <fragmenstein_runtime>  (939) 
21.181657552719116

>  <fragmenstein_outcome>  (939) 
too moved

>  <fragmenstein_mode>  (939) 
expansion

>  <fragmenstein_error>  (939) 


$$$$
C50845-P80
     RDKit          3D

 41 42  0  0  0  0  0  0  0  0999 V2000
    3.8089  -11.3786   21.5861 C   0  0  0  0  0  0  0  0  0  0  0  0
    4.2827  -12.3842   22.5618 C   0  0  0  0  0  0  0  0  0  0  0  0
    5.5884  -12.8060   22.4960 N   0  0  0  0  0  0  0  0  0  0  0  0
    5.8023  -13.6423   23.5447 C   0  0  0  0  0  0  0  0  0  0  0  0
    4.7084  -13.8355   24.2504 N   0  0  0  0  0  0  0  0  0  0  0  0
    3.7255  -13.0315   23.6948 C   0  0  0  0  0  0  0  0  0  0  0  0
    2.1423  -12.7757   24.3938 C   0  0  0  0  0  0  0  0  0  0  0  0
    0.9342  -13.5222   25.7013 C   0  0  0  0  0  0  0  0  0  0  0  0
    1.4815  -13.9592   26.6769 O   0  0  0  0  0  0  0  0  0  0  0  0
   -0.9009  -13.6532   25.3247 N   0  0  0  0  0  0  0  0  0  0  0  0
   -2.2322  -14.5373   26.1989 C   0  0  0  0  0  0  0  0  0  0  0  0
   -2.5812  -15.5281   25.0207 C   0  0  0  0  0  0  0  0  0  0  0  0
   -2.5255  -15.3977   27.9537 C   0  0  0  0  0  0  0  0  0  0  0  0
   -3.4680  -15.8523   29.6296 N   0  0  0  0  0  0  0  0  0  0  0  0
   -5.1767  -16.2081   29.9563 C   0  0  0  0  0  0  0  0  0  0  0  0
   -6.1466  -16.1626   29.2190 O   0  0  0  0  0  0  0  0  0  0  0  0
   -5.5057  -16.7935   31.4386 C   0  0  0  0  0  0  0  0  0  0  0  0
   -6.6861  -16.9025   32.4335 N   0  0  0  0  0  0  0  0  0  0  0  0
   -6.6284  -17.7803   33.4606 N   0  0  0  0  0  0  0  0  0  0  0  0
   -7.4623  -17.3035   34.3780 C   0  0  0  0  0  0  0  0  0  0  0  0
   -7.9909  -16.1031   33.9484 C   0  0  0  0  0  0  0  0  0  0  0  0
   -7.4936  -15.8082   32.7464 N   0  0  0  0  0  0  0  0  0  0  0  0
    4.0161  -11.7098   20.5629 H   0  0  0  0  0  0  0  0  0  0  0  0
    2.7437  -11.1905   21.6609 H   0  0  0  0  0  0  0  0  0  0  0  0
    4.3250  -10.4256   21.7437 H   0  0  0  0  0  0  0  0  0  0  0  0
    6.2741  -12.5290   21.8082 H   0  0  0  0  0  0  0  0  0  0  0  0
    6.7613  -14.1025   23.7395 H   0  0  0  0  0  0  0  0  0  0  0  0
    1.8210  -11.8885   23.8959 H   0  0  0  0  0  0  0  0  0  0  0  0
    2.0481  -13.6257   23.7734 H   0  0  0  0  0  0  0  0  0  0  0  0
   -1.0731  -13.3011   24.4583 H   0  0  0  0  0  0  0  0  0  0  0  0
   -2.8531  -13.6387   26.2195 H   0  0  0  0  0  0  0  0  0  0  0  0
   -1.7707  -15.4020   24.3261 H   0  0  0  0  0  0  0  0  0  0  0  0
   -3.4120  -15.3734   24.3504 H   0  0  0  0  0  0  0  0  0  0  0  0
   -2.6506  -16.5487   25.3879 H   0  0  0  0  0  0  0  0  0  0  0  0
   -2.4606  -16.4346   27.5434 H   0  0  0  0  0  0  0  0  0  0  0  0
   -1.5826  -15.0396   28.3668 H   0  0  0  0  0  0  0  0  0  0  0  0
   -2.9278  -15.9099   30.4855 H   0  0  0  0  0  0  0  0  0  0  0  0
   -4.6099  -17.0146   32.0212 H   0  0  0  0  0  0  0  0  0  0  0  0
   -5.8460  -15.7708   31.5397 H   0  0  0  0  0  0  0  0  0  0  0  0
   -7.6041  -17.8375   35.3038 H   0  0  0  0  0  0  0  0  0  0  0  0
   -8.6929  -15.4348   34.4252 H   0  0  0  0  0  0  0  0  0  0  0  0
  1  2  1  0
  2  3  1  0
  3  4  1  0
  4  5  2  0
  5  6  1  0
  6  7  1  0
  7  8  1  0
  8  9  2  0
  8 10  1  0
 10 11  1  0
 11 12  1  0
 11 13  1  0
 13 14  1  0
 14 15  1  0
 15 16  2  0
 15 17  1  0
 17 18  1  0
 18 19  1  0
 19 20  2  0
 20 21  1  0
 21 22  2  0
  6  2  2  0
 22 18  1  0
  1 23  1  0
  1 24  1  0
  1 25  1  0
  3 26  1  0
  4 27  1  0
  7 28  1  0
  7 29  1  0
 10 30  1  0
 11 31  1  0
 12 32  1  0
 12 33  1  0
 12 34  1  0
 13 35  1  0
 13 36  1  0
 14 37  1  0
 17 38  1  0
 17 39  1  0
 20 40  1  0
 21 41  1  0
M  END
>  <Energy>  (940) 
557.75257822163337

>  <compound_id>  (940) 
50845

>  <target_id>  (940) 
1

>  <reference_id>  (940) 
80

>  <inspiration_ids>  (940) 
[80, 54]

>  <energy_score>  (940) 
483.1266953206218

>  <distance_score>  (940) 
12.379959140658908

>  <path>  (940) 
/opt/xchem-fragalysis-2/maxwin/BulkDock/SCRATCH/511021/C50845-P80/C50845-P80.minimised.mol

>  <scratch_subdir>  (940) 
/opt/xchem-fragalysis-2/maxwin/BulkDock/SCRATCH/511021/C50845-P80

>  <fragmenstein_runtime>  (940) 
42.432055950164795

>  <fragmenstein_outcome>  (940) 
too moved

>  <fragmenstein_mode>  (940) 
expansion

>  <fragmenstein_error>  (940) 


$$$$
C50845-P54
     RDKit          3D

 41 42  0  0  0  0  0  0  0  0999 V2000
    3.9985  -11.9012   22.5827 C   0  0  0  0  0  0  0  0  0  0  0  0
    3.3862  -11.3887   23.8974 C   0  0  0  0  0  0  0  0  0  0  0  0
    3.1713  -10.0067   23.7991 N   0  0  0  0  0  0  0  0  0  0  0  0
    1.8517   -9.9888   23.4478 C   0  0  0  0  0  0  0  0  0  0  0  0
    1.2813  -11.1028   23.9021 N   0  0  0  0  0  0  0  0  0  0  0  0
    2.2728  -11.8093   24.7718 C   0  0  0  0  0  0  0  0  0  0  0  0
    1.7406  -13.3948   25.8632 C   0  0  0  0  0  0  0  0  0  0  0  0
    1.2019  -14.0483   27.5198 C   0  0  0  0  0  0  0  0  0  0  0  0
    1.5007  -13.4547   28.5122 O   0  0  0  0  0  0  0  0  0  0  0  0
    0.4809  -15.4464   27.3516 N   0  0  0  0  0  0  0  0  0  0  0  0
   -0.0426  -16.7510   28.6662 C   0  0  0  0  0  0  0  0  0  0  0  0
    1.3029  -16.6216   29.2679 C   0  0  0  0  0  0  0  0  0  0  0  0
   -0.9663  -18.6001   28.9845 C   0  0  0  0  0  0  0  0  0  0  0  0
   -2.4827  -19.7156   29.7190 N   0  0  0  0  0  0  0  0  0  0  0  0
   -3.2809  -21.3147   29.0447 C   0  0  0  0  0  0  0  0  0  0  0  0
   -2.8244  -21.9345   28.0759 O   0  0  0  0  0  0  0  0  0  0  0  0
   -4.8446  -22.0379   29.5128 C   0  0  0  0  0  0  0  0  0  0  0  0
   -6.5392  -22.0123   28.9842 N   0  0  0  0  0  0  0  0  0  0  0  0
   -7.3504  -21.1146   28.0543 N   0  0  0  0  0  0  0  0  0  0  0  0
   -8.6440  -21.7865   28.1418 C   0  0  0  0  0  0  0  0  0  0  0  0
   -8.6345  -22.9067   28.9798 C   0  0  0  0  0  0  0  0  0  0  0  0
   -7.4411  -23.0397   29.5250 N   0  0  0  0  0  0  0  0  0  0  0  0
    3.2996  -11.7461   21.7514 H   0  0  0  0  0  0  0  0  0  0  0  0
    4.8971  -11.3202   22.3366 H   0  0  0  0  0  0  0  0  0  0  0  0
    4.2725  -12.9459   22.5703 H   0  0  0  0  0  0  0  0  0  0  0  0
    3.8358   -9.3550   23.4105 H   0  0  0  0  0  0  0  0  0  0  0  0
    1.3853   -9.1883   22.8922 H   0  0  0  0  0  0  0  0  0  0  0  0
    2.8053  -13.7917   25.8271 H   0  0  0  0  0  0  0  0  0  0  0  0
    1.4353  -14.2962   25.3596 H   0  0  0  0  0  0  0  0  0  0  0  0
    0.3022  -15.6112   26.3731 H   0  0  0  0  0  0  0  0  0  0  0  0
   -0.4359  -16.0613   29.4390 H   0  0  0  0  0  0  0  0  0  0  0  0
    1.9884  -17.4458   29.2939 H   0  0  0  0  0  0  0  0  0  0  0  0
    1.8249  -15.6828   29.1916 H   0  0  0  0  0  0  0  0  0  0  0  0
    1.0103  -16.2788   30.1864 H   0  0  0  0  0  0  0  0  0  0  0  0
   -1.6579  -18.1981   28.2799 H   0  0  0  0  0  0  0  0  0  0  0  0
   -0.5399  -19.2636   28.2432 H   0  0  0  0  0  0  0  0  0  0  0  0
   -2.9636  -19.4328   30.5486 H   0  0  0  0  0  0  0  0  0  0  0  0
   -5.2016  -21.7233   30.5219 H   0  0  0  0  0  0  0  0  0  0  0  0
   -4.5288  -23.0986   29.3349 H   0  0  0  0  0  0  0  0  0  0  0  0
   -9.5738  -21.3778   27.7762 H   0  0  0  0  0  0  0  0  0  0  0  0
   -9.4426  -23.5639   29.2654 H   0  0  0  0  0  0  0  0  0  0  0  0
  1  2  1  0
  2  3  1  0
  3  4  1  0
  4  5  2  0
  5  6  1  0
  6  7  1  0
  7  8  1  0
  8  9  2  0
  8 10  1  0
 10 11  1  0
 11 12  1  0
 11 13  1  0
 13 14  1  0
 14 15  1  0
 15 16  2  0
 15 17  1  0
 17 18  1  0
 18 19  1  0
 19 20  2  0
 20 21  1  0
 21 22  2  0
  6  2  2  0
 22 18  1  0
  1 23  1  0
  1 24  1  0
  1 25  1  0
  3 26  1  0
  4 27  1  0
  7 28  1  0
  7 29  1  0
 10 30  1  0
 11 31  1  0
 12 32  1  0
 12 33  1  0
 12 34  1  0
 13 35  1  0
 13 36  1  0
 14 37  1  0
 17 38  1  0
 17 39  1  0
 20 40  1  0
 21 41  1  0
M  END
>  <Energy>  (941) 
780.99236366140656

>  <compound_id>  (941) 
50845

>  <target_id>  (941) 
1

>  <reference_id>  (941) 
54

>  <inspiration_ids>  (941) 
[80, 54]

>  <energy_score>  (941) 
706.3664807604001

>  <distance_score>  (941) 
11.119819785078539

>  <path>  (941) 
/opt/xchem-fragalysis-2/maxwin/BulkDock/SCRATCH/511021/C50845-P54/C50845-P54.minimised.mol

>  <scratch_subdir>  (941) 
/opt/xchem-fragalysis-2/maxwin/BulkDock/SCRATCH/511021/C50845-P54

>  <fragmenstein_runtime>  (941) 
31.76533007621765

>  <fragmenstein_outcome>  (941) 
too moved

>  <fragmenstein_mode>  (941) 
expansion

>  <fragmenstein_error>  (941) 


$$$$
C50846-P80
     RDKit          3D

 49 50  0  0  0  0  0  0  0  0999 V2000
    2.1570  -22.3761   29.1449 C   0  0  0  0  0  0  0  0  0  0  0  0
    1.2530  -21.2731   28.5854 C   0  0  0  0  0  0  0  0  0  0  0  0
    0.4881  -20.6046   29.7291 C   0  0  0  0  0  0  0  0  0  0  0  0
    2.1029  -20.2746   27.7716 C   0  0  0  0  0  0  0  0  0  0  0  0
    1.3428  -19.0923   27.1440 C   0  0  0  0  0  0  0  0  0  0  0  0
    0.0496  -19.6748   26.0526 C   0  0  0  0  0  0  0  0  0  0  0  0
   -1.6365  -19.5455   26.1064 N   0  0  0  0  0  0  0  0  0  0  0  0
   -2.7486  -20.5740   25.7225 C   0  0  0  0  0  0  0  0  0  0  0  0
   -2.6536  -21.7326   25.3733 O   0  0  0  0  0  0  0  0  0  0  0  0
   -4.5496  -20.0401   25.6723 C   0  0  0  0  0  0  0  0  0  0  0  0
   -6.0629  -19.9258   26.9670 C   0  0  0  0  0  0  0  0  0  0  0  0
   -7.6332  -21.0585   27.6018 C   0  0  0  0  0  0  0  0  0  0  0  0
   -7.6686  -22.4305   27.7325 N   0  0  0  0  0  0  0  0  0  0  0  0
   -9.0433  -22.9971   28.2253 C   0  0  0  0  0  0  0  0  0  0  0  0
   -9.9941  -22.0175   28.4553 C   0  0  0  0  0  0  0  0  0  0  0  0
   -9.3776  -20.8090   27.9118 N   0  0  0  0  0  0  0  0  0  0  0  0
    2.5252  -17.9173   26.8085 N   0  0  0  0  0  0  0  0  0  0  0  0
    2.8207  -16.4806   27.4887 C   0  0  0  0  0  0  0  0  0  0  0  0
    2.2581  -16.0765   28.4263 O   0  0  0  0  0  0  0  0  0  0  0  0
    4.0210  -15.0933   26.7913 C   0  0  0  0  0  0  0  0  0  0  0  0
    4.6147  -14.6040   25.6088 C   0  0  0  0  0  0  0  0  0  0  0  0
    5.7921  -13.4914   25.5415 N   0  0  0  0  0  0  0  0  0  0  0  0
    6.1906  -12.6563   26.4946 C   0  0  0  0  0  0  0  0  0  0  0  0
    5.3869  -12.8539   27.5283 C   0  0  0  0  0  0  0  0  0  0  0  0
    4.3416  -14.0134   27.5293 N   0  0  0  0  0  0  0  0  0  0  0  0
    2.6862  -22.8922   28.3369 H   0  0  0  0  0  0  0  0  0  0  0  0
    1.5685  -23.1235   29.6877 H   0  0  0  0  0  0  0  0  0  0  0  0
    2.9038  -21.9675   29.8342 H   0  0  0  0  0  0  0  0  0  0  0  0
    0.5223  -21.7583   27.9298 H   0  0  0  0  0  0  0  0  0  0  0  0
    1.1611  -20.0327   30.3766 H   0  0  0  0  0  0  0  0  0  0  0  0
   -0.0197  -21.3533   30.3468 H   0  0  0  0  0  0  0  0  0  0  0  0
   -0.2830  -19.9268   29.3502 H   0  0  0  0  0  0  0  0  0  0  0  0
    2.8893  -19.8760   28.4271 H   0  0  0  0  0  0  0  0  0  0  0  0
    2.6258  -20.8099   26.9686 H   0  0  0  0  0  0  0  0  0  0  0  0
    0.7785  -18.5672   27.9235 H   0  0  0  0  0  0  0  0  0  0  0  0
    0.3532  -19.4158   25.0402 H   0  0  0  0  0  0  0  0  0  0  0  0
    0.1495  -20.7661   26.0690 H   0  0  0  0  0  0  0  0  0  0  0  0
   -2.0709  -18.6872   26.4309 H   0  0  0  0  0  0  0  0  0  0  0  0
   -4.7992  -20.7572   24.8841 H   0  0  0  0  0  0  0  0  0  0  0  0
   -4.5121  -19.0334   25.2315 H   0  0  0  0  0  0  0  0  0  0  0  0
   -5.4716  -19.0488   27.2816 H   0  0  0  0  0  0  0  0  0  0  0  0
   -5.9303  -20.9080   27.5987 H   0  0  0  0  0  0  0  0  0  0  0  0
   -9.1583  -24.0598   28.4020 H   0  0  0  0  0  0  0  0  0  0  0  0
  -11.0077  -21.9843   28.8261 H   0  0  0  0  0  0  0  0  0  0  0  0
   -9.6039  -19.8740   28.1704 H   0  0  0  0  0  0  0  0  0  0  0  0
    3.0789  -17.9963   25.9689 H   0  0  0  0  0  0  0  0  0  0  0  0
    4.5129  -15.0577   24.6306 H   0  0  0  0  0  0  0  0  0  0  0  0
    6.9753  -11.9424   26.3497 H   0  0  0  0  0  0  0  0  0  0  0  0
    5.3735  -12.2504   28.4309 H   0  0  0  0  0  0  0  0  0  0  0  0
  1  2  1  0
  2  3  1  0
  2  4  1  0
  4  5  1  0
  5  6  1  0
  6  7  1  0
  7  8  1  0
  8  9  2  0
  8 10  1  0
 10 11  1  0
 11 12  1  0
 12 13  2  0
 13 14  1  0
 14 15  2  0
 15 16  1  0
  5 17  1  0
 17 18  1  0
 18 19  2  0
 18 20  1  0
 20 21  2  0
 21 22  1  0
 22 23  2  0
 23 24  1  0
 24 25  2  0
 16 12  1  0
 25 20  1  0
  1 26  1  0
  1 27  1  0
  1 28  1  0
  2 29  1  0
  3 30  1  0
  3 31  1  0
  3 32  1  0
  4 33  1  0
  4 34  1  0
  5 35  1  0
  6 36  1  0
  6 37  1  0
  7 38  1  0
 10 39  1  0
 10 40  1  0
 11 41  1  0
 11 42  1  0
 14 43  1  0
 15 44  1  0
 16 45  1  0
 17 46  1  0
 21 47  1  0
 23 48  1  0
 24 49  1  0
M  END
>  <Energy>  (942) 
665.01149697785092

>  <compound_id>  (942) 
50846

>  <target_id>  (942) 
1

>  <reference_id>  (942) 
80

>  <inspiration_ids>  (942) 
[80, 54]

>  <energy_score>  (942) 
540.5260465319858

>  <distance_score>  (942) 
12.234072323923556

>  <path>  (942) 
/opt/xchem-fragalysis-2/maxwin/BulkDock/SCRATCH/511021/C50846-P80/C50846-P80.minimised.mol

>  <scratch_subdir>  (942) 
/opt/xchem-fragalysis-2/maxwin/BulkDock/SCRATCH/511021/C50846-P80

>  <fragmenstein_runtime>  (942) 
55.95780825614929

>  <fragmenstein_outcome>  (942) 
too moved

>  <fragmenstein_mode>  (942) 
expansion

>  <fragmenstein_error>  (942) 


$$$$
C50846-P54
     RDKit          3D

 49 50  0  0  0  0  0  0  0  0999 V2000
    5.5004  -19.9617   20.3298 C   0  0  0  0  0  0  0  0  0  0  0  0
    4.7922  -20.6327   21.5066 C   0  0  0  0  0  0  0  0  0  0  0  0
    3.8966  -21.7701   21.0072 C   0  0  0  0  0  0  0  0  0  0  0  0
    4.0187  -19.6511   22.4241 C   0  0  0  0  0  0  0  0  0  0  0  0
    2.8907  -18.8165   21.7366 C   0  0  0  0  0  0  0  0  0  0  0  0
    1.4959  -19.3389   22.0660 C   0  0  0  0  0  0  0  0  0  0  0  0
    0.1837  -19.3811   21.4825 N   0  0  0  0  0  0  0  0  0  0  0  0
   -0.7659  -20.4634   21.3673 C   0  0  0  0  0  0  0  0  0  0  0  0
   -0.6687  -21.6241   21.6547 O   0  0  0  0  0  0  0  0  0  0  0  0
   -2.1483  -19.9903   20.8897 C   0  0  0  0  0  0  0  0  0  0  0  0
   -3.1190  -19.8226   22.0997 C   0  0  0  0  0  0  0  0  0  0  0  0
   -4.0875  -20.9465   22.3202 C   0  0  0  0  0  0  0  0  0  0  0  0
   -4.1270  -21.7553   23.3588 N   0  0  0  0  0  0  0  0  0  0  0  0
   -5.1777  -22.5987   23.1291 C   0  0  0  0  0  0  0  0  0  0  0  0
   -5.8425  -22.2664   21.9772 C   0  0  0  0  0  0  0  0  0  0  0  0
   -5.1444  -21.2047   21.4774 N   0  0  0  0  0  0  0  0  0  0  0  0
    3.3741  -17.4259   21.4822 N   0  0  0  0  0  0  0  0  0  0  0  0
    3.2885  -15.8894   22.5226 C   0  0  0  0  0  0  0  0  0  0  0  0
    2.7084  -15.8333   23.5730 O   0  0  0  0  0  0  0  0  0  0  0  0
    4.3738  -14.2652   21.9034 C   0  0  0  0  0  0  0  0  0  0  0  0
    5.9543  -14.3475   22.0893 C   0  0  0  0  0  0  0  0  0  0  0  0
    7.1619  -13.3101   23.0537 N   0  0  0  0  0  0  0  0  0  0  0  0
    6.9383  -11.6254   23.3355 C   0  0  0  0  0  0  0  0  0  0  0  0
    5.4401  -11.3287   22.9109 C   0  0  0  0  0  0  0  0  0  0  0  0
    4.2712  -12.6841   22.5917 N   0  0  0  0  0  0  0  0  0  0  0  0
    6.1796  -19.1784   20.6724 H   0  0  0  0  0  0  0  0  0  0  0  0
    6.1020  -20.6946   19.7806 H   0  0  0  0  0  0  0  0  0  0  0  0
    4.7983  -19.5188   19.6176 H   0  0  0  0  0  0  0  0  0  0  0  0
    5.5715  -21.0918   22.1301 H   0  0  0  0  0  0  0  0  0  0  0  0
    4.4894  -22.5180   20.4695 H   0  0  0  0  0  0  0  0  0  0  0  0
    3.1197  -21.4106   20.3255 H   0  0  0  0  0  0  0  0  0  0  0  0
    3.4067  -22.2768   21.8453 H   0  0  0  0  0  0  0  0  0  0  0  0
    3.6209  -20.2607   23.2392 H   0  0  0  0  0  0  0  0  0  0  0  0
    4.7335  -18.9913   22.9190 H   0  0  0  0  0  0  0  0  0  0  0  0
    2.9218  -19.1462   20.6891 H   0  0  0  0  0  0  0  0  0  0  0  0
    1.6023  -20.3573   22.4469 H   0  0  0  0  0  0  0  0  0  0  0  0
    1.2928  -18.5955   22.7965 H   0  0  0  0  0  0  0  0  0  0  0  0
   -0.2697  -18.5129   21.2200 H   0  0  0  0  0  0  0  0  0  0  0  0
   -2.0443  -19.0332   20.3683 H   0  0  0  0  0  0  0  0  0  0  0  0
   -2.5276  -20.7090   20.1544 H   0  0  0  0  0  0  0  0  0  0  0  0
   -2.5564  -19.6741   23.0252 H   0  0  0  0  0  0  0  0  0  0  0  0
   -3.7068  -18.9095   21.9402 H   0  0  0  0  0  0  0  0  0  0  0  0
   -5.4102  -23.3855   23.8183 H   0  0  0  0  0  0  0  0  0  0  0  0
   -6.7168  -22.6746   21.4894 H   0  0  0  0  0  0  0  0  0  0  0  0
   -5.3514  -20.7051   20.6249 H   0  0  0  0  0  0  0  0  0  0  0  0
    3.9732  -17.2658   20.7092 H   0  0  0  0  0  0  0  0  0  0  0  0
    6.5594  -14.9182   21.3562 H   0  0  0  0  0  0  0  0  0  0  0  0
    7.7634  -11.0650   23.7265 H   0  0  0  0  0  0  0  0  0  0  0  0
    4.9982  -10.3664   23.0724 H   0  0  0  0  0  0  0  0  0  0  0  0
  1  2  1  0
  2  3  1  0
  2  4  1  0
  4  5  1  0
  5  6  1  0
  6  7  1  0
  7  8  1  0
  8  9  2  0
  8 10  1  0
 10 11  1  0
 11 12  1  0
 12 13  2  0
 13 14  1  0
 14 15  2  0
 15 16  1  0
  5 17  1  0
 17 18  1  0
 18 19  2  0
 18 20  1  0
 20 21  2  0
 21 22  1  0
 22 23  2  0
 23 24  1  0
 24 25  2  0
 16 12  1  0
 25 20  1  0
  1 26  1  0
  1 27  1  0
  1 28  1  0
  2 29  1  0
  3 30  1  0
  3 31  1  0
  3 32  1  0
  4 33  1  0
  4 34  1  0
  5 35  1  0
  6 36  1  0
  6 37  1  0
  7 38  1  0
 10 39  1  0
 10 40  1  0
 11 41  1  0
 11 42  1  0
 14 43  1  0
 15 44  1  0
 16 45  1  0
 17 46  1  0
 21 47  1  0
 23 48  1  0
 24 49  1  0
M  END
>  <Energy>  (943) 
563.45631039673754

>  <compound_id>  (943) 
50846

>  <target_id>  (943) 
1

>  <reference_id>  (943) 
54

>  <inspiration_ids>  (943) 
[80, 54]

>  <energy_score>  (943) 
438.97085995087065

>  <distance_score>  (943) 
13.450359668472537

>  <path>  (943) 
/opt/xchem-fragalysis-2/maxwin/BulkDock/SCRATCH/511021/C50846-P54/C50846-P54.minimised.mol

>  <scratch_subdir>  (943) 
/opt/xchem-fragalysis-2/maxwin/BulkDock/SCRATCH/511021/C50846-P54

>  <fragmenstein_runtime>  (943) 
44.88970732688904

>  <fragmenstein_outcome>  (943) 
too moved

>  <fragmenstein_mode>  (943) 
expansion

>  <fragmenstein_error>  (943) 


$$$$
C28742-P80
     RDKit          3D

 47 48  0  0  0  0  0  0  0  0999 V2000
  -12.2815  -17.0027   29.3426 C   0  0  0  0  0  0  0  0  0  0  0  0
  -11.2317  -18.0569   28.9310 C   0  0  0  0  0  0  0  0  0  0  0  0
  -12.1405  -19.8024   29.3276 C   0  0  0  0  0  0  0  0  0  0  0  0
   -9.3195  -18.4340   28.1373 C   0  0  0  0  0  0  0  0  0  0  0  0
   -8.4196  -16.7645   27.5578 C   0  0  0  0  0  0  0  0  0  0  0  0
   -8.0207  -15.4139   26.3987 C   0  0  0  0  0  0  0  0  0  0  0  0
   -6.8550  -14.2663   26.6554 N   0  0  0  0  0  0  0  0  0  0  0  0
   -7.9376  -13.6411   27.4359 C   0  0  0  0  0  0  0  0  0  0  0  0
   -6.2560  -13.2675   25.7240 C   0  0  0  0  0  0  0  0  0  0  0  0
   -6.5403  -12.9943   24.5819 O   0  0  0  0  0  0  0  0  0  0  0  0
   -5.0253  -12.5246   26.3940 C   0  0  0  0  0  0  0  0  0  0  0  0
   -4.5238  -11.1600   25.8021 C   0  0  0  0  0  0  0  0  0  0  0  0
   -3.6467  -10.3322   26.3695 N   0  0  0  0  0  0  0  0  0  0  0  0
   -3.5265   -9.2260   25.5525 C   0  0  0  0  0  0  0  0  0  0  0  0
   -4.2522   -9.4084   24.4110 C   0  0  0  0  0  0  0  0  0  0  0  0
   -4.9066  -10.6056   24.5997 N   0  0  0  0  0  0  0  0  0  0  0  0
   -9.3916  -20.4201   27.9341 N   0  0  0  0  0  0  0  0  0  0  0  0
  -10.2872  -21.6802   28.3159 C   0  0  0  0  0  0  0  0  0  0  0  0
  -11.3877  -21.8944   27.5679 N   0  0  0  0  0  0  0  0  0  0  0  0
  -11.9096  -23.1349   27.3741 C   0  0  0  0  0  0  0  0  0  0  0  0
  -11.3788  -24.2721   27.8851 C   0  0  0  0  0  0  0  0  0  0  0  0
  -10.2143  -24.0449   28.5332 C   0  0  0  0  0  0  0  0  0  0  0  0
   -9.6505  -22.8138   28.6403 N   0  0  0  0  0  0  0  0  0  0  0  0
  -12.5114  -15.9391   28.9994 H   0  0  0  0  0  0  0  0  0  0  0  0
  -12.3597  -16.7252   30.4036 H   0  0  0  0  0  0  0  0  0  0  0  0
  -12.9156  -17.6231   28.8417 H   0  0  0  0  0  0  0  0  0  0  0  0
  -10.7164  -17.8011   29.7809 H   0  0  0  0  0  0  0  0  0  0  0  0
  -13.1601  -19.6062   29.5602 H   0  0  0  0  0  0  0  0  0  0  0  0
  -12.2833  -20.4936   28.5440 H   0  0  0  0  0  0  0  0  0  0  0  0
  -11.6055  -20.4408   30.0646 H   0  0  0  0  0  0  0  0  0  0  0  0
   -9.5871  -18.0553   27.1823 H   0  0  0  0  0  0  0  0  0  0  0  0
   -7.7659  -16.4645   28.3361 H   0  0  0  0  0  0  0  0  0  0  0  0
   -9.4035  -16.3140   27.3284 H   0  0  0  0  0  0  0  0  0  0  0  0
   -8.9530  -14.9806   25.9890 H   0  0  0  0  0  0  0  0  0  0  0  0
   -7.5807  -15.8101   25.4823 H   0  0  0  0  0  0  0  0  0  0  0  0
   -8.2097  -14.1853   28.3258 H   0  0  0  0  0  0  0  0  0  0  0  0
   -8.7794  -13.2602   26.8409 H   0  0  0  0  0  0  0  0  0  0  0  0
   -7.5074  -12.7156   27.8466 H   0  0  0  0  0  0  0  0  0  0  0  0
   -5.2567  -12.3461   27.4498 H   0  0  0  0  0  0  0  0  0  0  0  0
   -4.1798  -13.2216   26.3474 H   0  0  0  0  0  0  0  0  0  0  0  0
   -2.9061   -8.3834   25.8295 H   0  0  0  0  0  0  0  0  0  0  0  0
   -4.3956   -8.8214   23.5156 H   0  0  0  0  0  0  0  0  0  0  0  0
   -5.4582  -11.0952   23.8998 H   0  0  0  0  0  0  0  0  0  0  0  0
  -10.0511  -20.4490   27.1668 H   0  0  0  0  0  0  0  0  0  0  0  0
  -12.7770  -23.1719   26.7245 H   0  0  0  0  0  0  0  0  0  0  0  0
  -11.7972  -25.2529   27.7364 H   0  0  0  0  0  0  0  0  0  0  0  0
   -9.6357  -24.8550   28.9679 H   0  0  0  0  0  0  0  0  0  0  0  0
  1  2  1  0
  2  3  1  0
  2  4  1  0
  4  5  1  0
  5  6  1  0
  6  7  1  0
  7  8  1  0
  7  9  1  0
  9 10  2  0
  9 11  1  0
 11 12  1  0
 12 13  2  0
 13 14  1  0
 14 15  2  0
 15 16  1  0
  4 17  1  0
 17 18  1  0
 18 19  2  0
 19 20  1  0
 20 21  2  0
 21 22  1  0
 22 23  2  0
 16 12  1  0
 23 18  1  0
  1 24  1  0
  1 25  1  0
  1 26  1  0
  2 27  1  0
  3 28  1  0
  3 29  1  0
  3 30  1  0
  4 31  1  0
  5 32  1  0
  5 33  1  0
  6 34  1  0
  6 35  1  0
  8 36  1  0
  8 37  1  0
  8 38  1  0
 11 39  1  0
 11 40  1  0
 14 41  1  0
 15 42  1  0
 16 43  1  0
 17 44  1  0
 20 45  1  0
 21 46  1  0
 22 47  1  0
M  END
>  <Energy>  (944) 
563.17453368202848

>  <compound_id>  (944) 
28742

>  <target_id>  (944) 
1

>  <reference_id>  (944) 
80

>  <inspiration_ids>  (944) 
[80, 54]

>  <energy_score>  (944) 
581.569421013293

>  <distance_score>  (944) 
12.786058937395056

>  <path>  (944) 
/opt/xchem-fragalysis-2/maxwin/BulkDock/SCRATCH/511021/C28742-P80/C28742-P80.minimised.mol

>  <scratch_subdir>  (944) 
/opt/xchem-fragalysis-2/maxwin/BulkDock/SCRATCH/511021/C28742-P80

>  <fragmenstein_runtime>  (944) 
38.14657211303711

>  <fragmenstein_outcome>  (944) 
too moved

>  <fragmenstein_mode>  (944) 
expansion

>  <fragmenstein_error>  (944) 


$$$$
C28742-P54
     RDKit          3D

 47 48  0  0  0  0  0  0  0  0999 V2000
   -8.2599  -22.1201   34.6997 C   0  0  0  0  0  0  0  0  0  0  0  0
   -8.1485  -21.2270   33.4750 C   0  0  0  0  0  0  0  0  0  0  0  0
   -9.6459  -21.2206   33.0888 C   0  0  0  0  0  0  0  0  0  0  0  0
   -6.7176  -21.8350   32.7581 C   0  0  0  0  0  0  0  0  0  0  0  0
   -4.9335  -20.9272   32.0738 C   0  0  0  0  0  0  0  0  0  0  0  0
   -3.6879  -19.2301   31.7851 C   0  0  0  0  0  0  0  0  0  0  0  0
   -4.1211  -17.4712   31.1099 N   0  0  0  0  0  0  0  0  0  0  0  0
   -5.0462  -17.4858   32.1626 C   0  0  0  0  0  0  0  0  0  0  0  0
   -3.3330  -16.1804   31.1513 C   0  0  0  0  0  0  0  0  0  0  0  0
   -2.2954  -15.9211   31.6953 O   0  0  0  0  0  0  0  0  0  0  0  0
   -4.2320  -15.0305   30.3699 C   0  0  0  0  0  0  0  0  0  0  0  0
   -3.7518  -13.6695   29.7708 C   0  0  0  0  0  0  0  0  0  0  0  0
   -4.0393  -13.2269   28.5431 N   0  0  0  0  0  0  0  0  0  0  0  0
   -3.5164  -11.9572   28.4197 C   0  0  0  0  0  0  0  0  0  0  0  0
   -2.9088  -11.5868   29.5895 C   0  0  0  0  0  0  0  0  0  0  0  0
   -3.1562  -12.6271   30.4552 N   0  0  0  0  0  0  0  0  0  0  0  0
   -7.5997  -22.7562   31.7146 N   0  0  0  0  0  0  0  0  0  0  0  0
   -8.6055  -22.8881   30.7685 C   0  0  0  0  0  0  0  0  0  0  0  0
   -9.7088  -22.1477   30.7037 N   0  0  0  0  0  0  0  0  0  0  0  0
  -10.6453  -22.3728   29.7549 C   0  0  0  0  0  0  0  0  0  0  0  0
  -10.5343  -23.3477   28.8129 C   0  0  0  0  0  0  0  0  0  0  0  0
   -9.4008  -24.0939   28.9394 C   0  0  0  0  0  0  0  0  0  0  0  0
   -8.4695  -23.9009   29.9026 N   0  0  0  0  0  0  0  0  0  0  0  0
   -9.1845  -22.0356   35.2825 H   0  0  0  0  0  0  0  0  0  0  0  0
   -7.4305  -21.8243   35.3264 H   0  0  0  0  0  0  0  0  0  0  0  0
   -8.2116  -23.1763   34.4184 H   0  0  0  0  0  0  0  0  0  0  0  0
   -8.0297  -20.1607   33.5943 H   0  0  0  0  0  0  0  0  0  0  0  0
  -10.0682  -22.2226   32.9610 H   0  0  0  0  0  0  0  0  0  0  0  0
   -9.8972  -20.5456   32.2783 H   0  0  0  0  0  0  0  0  0  0  0  0
  -10.2402  -20.7930   33.9113 H   0  0  0  0  0  0  0  0  0  0  0  0
   -6.3653  -22.6565   33.3723 H   0  0  0  0  0  0  0  0  0  0  0  0
   -4.2308  -21.5470   32.6107 H   0  0  0  0  0  0  0  0  0  0  0  0
   -4.9458  -21.3086   31.0890 H   0  0  0  0  0  0  0  0  0  0  0  0
   -2.8048  -19.0493   32.4336 H   0  0  0  0  0  0  0  0  0  0  0  0
   -3.0526  -19.6142   30.9453 H   0  0  0  0  0  0  0  0  0  0  0  0
   -4.7081  -16.8170   32.9367 H   0  0  0  0  0  0  0  0  0  0  0  0
   -5.9762  -18.0048   32.2665 H   0  0  0  0  0  0  0  0  0  0  0  0
   -5.6769  -16.6680   31.7511 H   0  0  0  0  0  0  0  0  0  0  0  0
   -4.8203  -15.5145   29.5908 H   0  0  0  0  0  0  0  0  0  0  0  0
   -4.9622  -14.7212   31.1328 H   0  0  0  0  0  0  0  0  0  0  0  0
   -3.6225  -11.3973   27.5019 H   0  0  0  0  0  0  0  0  0  0  0  0
   -2.4030  -10.6838   29.8982 H   0  0  0  0  0  0  0  0  0  0  0  0
   -2.9866  -12.6186   31.4491 H   0  0  0  0  0  0  0  0  0  0  0  0
   -7.8628  -23.5513   32.3035 H   0  0  0  0  0  0  0  0  0  0  0  0
  -11.5005  -21.7058   29.7896 H   0  0  0  0  0  0  0  0  0  0  0  0
  -11.2688  -23.5107   28.0399 H   0  0  0  0  0  0  0  0  0  0  0  0
   -9.1816  -24.8980   28.2446 H   0  0  0  0  0  0  0  0  0  0  0  0
  1  2  1  0
  2  3  1  0
  2  4  1  0
  4  5  1  0
  5  6  1  0
  6  7  1  0
  7  8  1  0
  7  9  1  0
  9 10  2  0
  9 11  1  0
 11 12  1  0
 12 13  2  0
 13 14  1  0
 14 15  2  0
 15 16  1  0
  4 17  1  0
 17 18  1  0
 18 19  2  0
 19 20  1  0
 20 21  2  0
 21 22  1  0
 22 23  2  0
 16 12  1  0
 23 18  1  0
  1 24  1  0
  1 25  1  0
  1 26  1  0
  2 27  1  0
  3 28  1  0
  3 29  1  0
  3 30  1  0
  4 31  1  0
  5 32  1  0
  5 33  1  0
  6 34  1  0
  6 35  1  0
  8 36  1  0
  8 37  1  0
  8 38  1  0
 11 39  1  0
 11 40  1  0
 14 41  1  0
 15 42  1  0
 16 43  1  0
 17 44  1  0
 20 45  1  0
 21 46  1  0
 22 47  1  0
M  END
>  <Energy>  (945) 
412.01258430103695

>  <compound_id>  (945) 
28742

>  <target_id>  (945) 
1

>  <reference_id>  (945) 
54

>  <inspiration_ids>  (945) 
[80, 54]

>  <energy_score>  (945) 
430.4074716323161

>  <distance_score>  (945) 
13.614703924545646

>  <path>  (945) 
/opt/xchem-fragalysis-2/maxwin/BulkDock/SCRATCH/511021/C28742-P54/C28742-P54.minimised.mol

>  <scratch_subdir>  (945) 
/opt/xchem-fragalysis-2/maxwin/BulkDock/SCRATCH/511021/C28742-P54

>  <fragmenstein_runtime>  (945) 
40.44267964363098

>  <fragmenstein_outcome>  (945) 
too moved

>  <fragmenstein_mode>  (945) 
expansion

>  <fragmenstein_error>  (945) 


$$$$
C28743-P80
     RDKit          3D

 53 54  0  0  0  0  0  0  0  0999 V2000
   -0.9585   -6.8989   15.5979 C   0  0  0  0  0  0  0  0  0  0  0  0
   -1.7708   -7.0215   16.8776 C   0  0  0  0  0  0  0  0  0  0  0  0
   -2.1495   -8.4245   17.2063 C   0  0  0  0  0  0  0  0  0  0  0  0
   -2.6044   -9.4362   16.3935 C   0  0  0  0  0  0  0  0  0  0  0  0
   -2.9514  -10.5422   17.1253 N   0  0  0  0  0  0  0  0  0  0  0  0
   -2.8047  -10.2207   18.3998 C   0  0  0  0  0  0  0  0  0  0  0  0
   -3.1464  -11.1194   19.6010 C   0  0  0  0  0  0  0  0  0  0  0  0
   -4.6549  -11.0751   20.0453 C   0  0  0  0  0  0  0  0  0  0  0  0
   -5.3667  -10.2020   19.7950 O   0  0  0  0  0  0  0  0  0  0  0  0
   -4.8631  -12.4949   20.9383 N   0  0  0  0  0  0  0  0  0  0  0  0
   -5.9662  -12.7273   21.6314 C   0  0  0  0  0  0  0  0  0  0  0  0
   -6.3789  -13.4179   21.8099 C   0  0  0  0  0  0  0  0  0  0  0  0
   -6.0782  -14.3877   23.2903 C   0  0  0  0  0  0  0  0  0  0  0  0
   -7.1474  -14.2986   24.4530 C   0  0  0  0  0  0  0  0  0  0  0  0
   -8.3294  -15.0769   24.0702 N   0  0  0  0  0  0  0  0  0  0  0  0
   -9.5300  -15.0005   24.7411 C   0  0  0  0  0  0  0  0  0  0  0  0
  -10.6061  -15.1052   23.9436 N   0  0  0  0  0  0  0  0  0  0  0  0
  -11.7789  -14.6629   24.4349 C   0  0  0  0  0  0  0  0  0  0  0  0
  -11.9229  -14.1737   25.7072 C   0  0  0  0  0  0  0  0  0  0  0  0
  -10.7930  -14.2420   26.4838 C   0  0  0  0  0  0  0  0  0  0  0  0
   -9.5988  -14.6772   26.0322 N   0  0  0  0  0  0  0  0  0  0  0  0
   -7.3300  -12.7949   24.8404 C   0  0  0  0  0  0  0  0  0  0  0  0
   -8.5299  -12.0554   24.2464 C   0  0  0  0  0  0  0  0  0  0  0  0
   -7.2502  -12.5617   26.3564 C   0  0  0  0  0  0  0  0  0  0  0  0
   -2.1784   -8.9828   18.4741 N   0  0  0  0  0  0  0  0  0  0  0  0
   -0.6826   -5.8541   15.4236 H   0  0  0  0  0  0  0  0  0  0  0  0
   -0.0420   -7.4933   15.6411 H   0  0  0  0  0  0  0  0  0  0  0  0
   -1.5323   -7.2373   14.7283 H   0  0  0  0  0  0  0  0  0  0  0  0
   -1.2861   -6.5486   17.7256 H   0  0  0  0  0  0  0  0  0  0  0  0
   -2.7014   -6.4555   16.7364 H   0  0  0  0  0  0  0  0  0  0  0  0
   -2.7241   -9.4250   15.3181 H   0  0  0  0  0  0  0  0  0  0  0  0
   -2.8920  -12.1509   19.3344 H   0  0  0  0  0  0  0  0  0  0  0  0
   -2.5387  -10.8238   20.4631 H   0  0  0  0  0  0  0  0  0  0  0  0
   -6.5455  -12.1562   20.6353 H   0  0  0  0  0  0  0  0  0  0  0  0
   -5.2964  -12.2199   22.5465 H   0  0  0  0  0  0  0  0  0  0  0  0
   -6.5006  -11.6326   22.0228 H   0  0  0  0  0  0  0  0  0  0  0  0
   -6.3218  -14.4222   21.1070 H   0  0  0  0  0  0  0  0  0  0  0  0
   -7.6140  -13.3271   21.5912 H   0  0  0  0  0  0  0  0  0  0  0  0
   -5.9851  -15.4298   22.9560 H   0  0  0  0  0  0  0  0  0  0  0  0
   -5.0962  -14.0859   23.6773 H   0  0  0  0  0  0  0  0  0  0  0  0
   -6.6922  -14.8247   25.3026 H   0  0  0  0  0  0  0  0  0  0  0  0
   -8.5737  -15.0700   23.0863 H   0  0  0  0  0  0  0  0  0  0  0  0
  -12.6198  -14.7012   23.7482 H   0  0  0  0  0  0  0  0  0  0  0  0
  -12.8661  -13.8074   26.0869 H   0  0  0  0  0  0  0  0  0  0  0  0
  -10.8100  -13.9125   27.5180 H   0  0  0  0  0  0  0  0  0  0  0  0
   -6.4440  -12.2650   24.4683 H   0  0  0  0  0  0  0  0  0  0  0  0
   -8.3535  -10.9739   24.2815 H   0  0  0  0  0  0  0  0  0  0  0  0
   -8.7062  -12.3205   23.2026 H   0  0  0  0  0  0  0  0  0  0  0  0
   -9.4500  -12.2344   24.8061 H   0  0  0  0  0  0  0  0  0  0  0  0
   -7.2095  -11.4881   26.5732 H   0  0  0  0  0  0  0  0  0  0  0  0
   -6.3414  -13.0115   26.7705 H   0  0  0  0  0  0  0  0  0  0  0  0
   -8.1041  -12.9676   26.8983 H   0  0  0  0  0  0  0  0  0  0  0  0
   -1.8180   -8.5777   19.3236 H   0  0  0  0  0  0  0  0  0  0  0  0
  1  2  1  0
  2  3  1  0
  3  4  2  0
  4  5  1  0
  5  6  2  0
  6  7  1  0
  7  8  1  0
  8  9  2  0
  8 10  1  0
 10 11  1  0
 10 12  1  0
 12 13  1  0
 13 14  1  0
 14 15  1  0
 15 16  1  0
 16 17  2  0
 17 18  1  0
 18 19  2  0
 19 20  1  0
 20 21  2  0
 14 22  1  0
 22 23  1  0
 22 24  1  0
  6 25  1  0
 25  3  1  0
 21 16  1  0
  1 26  1  0
  1 27  1  0
  1 28  1  0
  2 29  1  0
  2 30  1  0
  4 31  1  0
  7 32  1  0
  7 33  1  0
 11 34  1  0
 11 35  1  0
 11 36  1  0
 12 37  1  0
 12 38  1  0
 13 39  1  0
 13 40  1  0
 14 41  1  0
 15 42  1  0
 18 43  1  0
 19 44  1  0
 20 45  1  0
 22 46  1  0
 23 47  1  0
 23 48  1  0
 23 49  1  0
 24 50  1  0
 24 51  1  0
 24 52  1  0
 25 53  1  0
M  END
>  <Energy>  (946) 
702.42652771627218

>  <compound_id>  (946) 
28743

>  <target_id>  (946) 
1

>  <reference_id>  (946) 
80

>  <inspiration_ids>  (946) 
[80, 54]

>  <energy_score>  (946) 
718.2255802727324

>  <distance_score>  (946) 
13.871099533045507

>  <path>  (946) 
/opt/xchem-fragalysis-2/maxwin/BulkDock/SCRATCH/511021/C28743-P80/C28743-P80.minimised.mol

>  <scratch_subdir>  (946) 
/opt/xchem-fragalysis-2/maxwin/BulkDock/SCRATCH/511021/C28743-P80

>  <fragmenstein_runtime>  (946) 
46.2270393371582

>  <fragmenstein_outcome>  (946) 
too moved

>  <fragmenstein_mode>  (946) 
expansion

>  <fragmenstein_error>  (946) 


$$$$
C28743-P54
     RDKit          3D

 53 54  0  0  0  0  0  0  0  0999 V2000
    4.4248   -3.0804   23.8334 C   0  0  0  0  0  0  0  0  0  0  0  0
    4.8098   -3.7343   25.1502 C   0  0  0  0  0  0  0  0  0  0  0  0
    3.8997   -4.8763   25.4846 C   0  0  0  0  0  0  0  0  0  0  0  0
    4.0051   -6.1993   25.1506 C   0  0  0  0  0  0  0  0  0  0  0  0
    2.8688   -6.8836   25.5423 N   0  0  0  0  0  0  0  0  0  0  0  0
    2.1336   -6.0676   26.2958 C   0  0  0  0  0  0  0  0  0  0  0  0
    0.7243   -6.3736   26.9738 C   0  0  0  0  0  0  0  0  0  0  0  0
    0.6790   -7.3185   28.2667 C   0  0  0  0  0  0  0  0  0  0  0  0
    1.6345   -7.5846   28.8715 O   0  0  0  0  0  0  0  0  0  0  0  0
   -0.9116   -7.7986   28.4192 N   0  0  0  0  0  0  0  0  0  0  0  0
   -1.5843   -8.4949   29.2937 C   0  0  0  0  0  0  0  0  0  0  0  0
   -1.5004   -9.2242   29.6889 C   0  0  0  0  0  0  0  0  0  0  0  0
   -3.0074  -10.3092   29.5380 C   0  0  0  0  0  0  0  0  0  0  0  0
   -3.0113  -11.8051   30.1396 C   0  0  0  0  0  0  0  0  0  0  0  0
   -4.4105  -12.3203   30.1300 N   0  0  0  0  0  0  0  0  0  0  0  0
   -4.7000  -13.6649   30.3335 C   0  0  0  0  0  0  0  0  0  0  0  0
   -5.7107  -13.8866   31.1915 N   0  0  0  0  0  0  0  0  0  0  0  0
   -5.9525  -15.1655   31.5358 C   0  0  0  0  0  0  0  0  0  0  0  0
   -5.2547  -16.2251   31.0289 C   0  0  0  0  0  0  0  0  0  0  0  0
   -4.3065  -15.9105   30.0938 C   0  0  0  0  0  0  0  0  0  0  0  0
   -3.9968  -14.6420   29.7450 N   0  0  0  0  0  0  0  0  0  0  0  0
   -2.3593  -11.8219   31.5505 C   0  0  0  0  0  0  0  0  0  0  0  0
   -2.0495  -13.2302   32.0676 C   0  0  0  0  0  0  0  0  0  0  0  0
   -3.1463  -11.0419   32.6075 C   0  0  0  0  0  0  0  0  0  0  0  0
    2.7365   -4.8046   26.2435 N   0  0  0  0  0  0  0  0  0  0  0  0
    4.4743   -3.7959   23.0054 H   0  0  0  0  0  0  0  0  0  0  0  0
    3.4054   -2.6818   23.8726 H   0  0  0  0  0  0  0  0  0  0  0  0
    5.1044   -2.2526   23.6079 H   0  0  0  0  0  0  0  0  0  0  0  0
    4.7739   -2.9896   25.9538 H   0  0  0  0  0  0  0  0  0  0  0  0
    5.8439   -4.0939   25.0928 H   0  0  0  0  0  0  0  0  0  0  0  0
    4.7947   -6.6900   24.5925 H   0  0  0  0  0  0  0  0  0  0  0  0
    0.1031   -6.8374   26.1985 H   0  0  0  0  0  0  0  0  0  0  0  0
    0.2714   -5.4173   27.2593 H   0  0  0  0  0  0  0  0  0  0  0  0
   -2.6159   -7.8277   29.6774 H   0  0  0  0  0  0  0  0  0  0  0  0
   -2.3990   -8.4488   28.3591 H   0  0  0  0  0  0  0  0  0  0  0  0
   -1.2048   -7.5279   30.0294 H   0  0  0  0  0  0  0  0  0  0  0  0
   -0.6816  -10.0748   29.4508 H   0  0  0  0  0  0  0  0  0  0  0  0
   -1.1744   -9.1648   30.8844 H   0  0  0  0  0  0  0  0  0  0  0  0
   -3.8159   -9.7323   30.0089 H   0  0  0  0  0  0  0  0  0  0  0  0
   -3.2530  -10.3831   28.4716 H   0  0  0  0  0  0  0  0  0  0  0  0
   -2.4000  -12.4087   29.4564 H   0  0  0  0  0  0  0  0  0  0  0  0
   -5.0272  -11.8390   30.7767 H   0  0  0  0  0  0  0  0  0  0  0  0
   -6.7393  -15.3191   32.2681 H   0  0  0  0  0  0  0  0  0  0  0  0
   -5.4604  -17.2326   31.3475 H   0  0  0  0  0  0  0  0  0  0  0  0
   -3.7259  -16.6843   29.6025 H   0  0  0  0  0  0  0  0  0  0  0  0
   -1.3810  -11.3359   31.4543 H   0  0  0  0  0  0  0  0  0  0  0  0
   -1.3757  -13.1749   32.9304 H   0  0  0  0  0  0  0  0  0  0  0  0
   -1.5503  -13.8310   31.3007 H   0  0  0  0  0  0  0  0  0  0  0  0
   -2.9475  -13.7569   32.4006 H   0  0  0  0  0  0  0  0  0  0  0  0
   -2.5896  -11.0100   33.5508 H   0  0  0  0  0  0  0  0  0  0  0  0
   -3.3194  -10.0070   32.2987 H   0  0  0  0  0  0  0  0  0  0  0  0
   -4.1160  -11.5048   32.8152 H   0  0  0  0  0  0  0  0  0  0  0  0
    2.3689   -3.9713   26.6827 H   0  0  0  0  0  0  0  0  0  0  0  0
  1  2  1  0
  2  3  1  0
  3  4  2  0
  4  5  1  0
  5  6  2  0
  6  7  1  0
  7  8  1  0
  8  9  2  0
  8 10  1  0
 10 11  1  0
 10 12  1  0
 12 13  1  0
 13 14  1  0
 14 15  1  0
 15 16  1  0
 16 17  2  0
 17 18  1  0
 18 19  2  0
 19 20  1  0
 20 21  2  0
 14 22  1  0
 22 23  1  0
 22 24  1  0
  6 25  1  0
 25  3  1  0
 21 16  1  0
  1 26  1  0
  1 27  1  0
  1 28  1  0
  2 29  1  0
  2 30  1  0
  4 31  1  0
  7 32  1  0
  7 33  1  0
 11 34  1  0
 11 35  1  0
 11 36  1  0
 12 37  1  0
 12 38  1  0
 13 39  1  0
 13 40  1  0
 14 41  1  0
 15 42  1  0
 18 43  1  0
 19 44  1  0
 20 45  1  0
 22 46  1  0
 23 47  1  0
 23 48  1  0
 23 49  1  0
 24 50  1  0
 24 51  1  0
 24 52  1  0
 25 53  1  0
M  END
>  <Energy>  (947) 
720.89384763194369

>  <compound_id>  (947) 
28743

>  <target_id>  (947) 
1

>  <reference_id>  (947) 
54

>  <inspiration_ids>  (947) 
[80, 54]

>  <energy_score>  (947) 
736.6929001884241

>  <distance_score>  (947) 
13.612167844707956

>  <path>  (947) 
/opt/xchem-fragalysis-2/maxwin/BulkDock/SCRATCH/511021/C28743-P54/C28743-P54.minimised.mol

>  <scratch_subdir>  (947) 
/opt/xchem-fragalysis-2/maxwin/BulkDock/SCRATCH/511021/C28743-P54

>  <fragmenstein_runtime>  (947) 
39.814271211624146

>  <fragmenstein_outcome>  (947) 
too moved

>  <fragmenstein_mode>  (947) 
expansion

>  <fragmenstein_error>  (947) 


$$$$
C28747-P80
     RDKit          3D

 52 55  0  0  0  0  0  0  0  0999 V2000
   -2.8214  -11.1231   20.7897 C   0  0  0  0  0  0  0  0  0  0  0  0
   -1.4120  -11.4053   21.3190 C   0  0  0  0  0  0  0  0  0  0  0  0
   -0.9233   -9.8595   21.4523 C   0  0  0  0  0  0  0  0  0  0  0  0
   -0.3675  -12.5277   22.6791 C   0  0  0  0  0  0  0  0  0  0  0  0
   -0.7005  -14.0607   24.1292 C   0  0  0  0  0  0  0  0  0  0  0  0
   -2.1260  -14.9752   25.3840 C   0  0  0  0  0  0  0  0  0  0  0  0
   -2.9553  -15.5088   24.7074 O   0  0  0  0  0  0  0  0  0  0  0  0
   -2.2947  -15.1992   27.3240 N   0  0  0  0  0  0  0  0  0  0  0  0
   -3.7473  -16.0964   28.4759 C   0  0  0  0  0  0  0  0  0  0  0  0
   -4.0097  -16.3256   30.2550 C   0  0  0  0  0  0  0  0  0  0  0  0
   -5.7072  -17.2138   30.6510 C   0  0  0  0  0  0  0  0  0  0  0  0
   -6.1318  -16.1389   31.6201 C   0  0  0  0  0  0  0  0  0  0  0  0
   -6.1275  -15.0215   30.6020 C   0  0  0  0  0  0  0  0  0  0  0  0
   -5.7799  -15.8181   29.1212 C   0  0  0  0  0  0  0  0  0  0  0  0
   -6.7761  -17.1072   29.3791 N   0  0  0  0  0  0  0  0  0  0  0  0
   -8.2133  -17.9125   28.6221 C   0  0  0  0  0  0  0  0  0  0  0  0
   -9.4769  -18.4847   28.7864 N   0  0  0  0  0  0  0  0  0  0  0  0
  -10.1878  -20.2442   29.3559 C   0  0  0  0  0  0  0  0  0  0  0  0
  -10.2624  -21.3225   28.5910 C   0  0  0  0  0  0  0  0  0  0  0  0
   -9.2983  -20.6407   27.9009 C   0  0  0  0  0  0  0  0  0  0  0  0
   -8.2550  -19.1929   28.3367 N   0  0  0  0  0  0  0  0  0  0  0  0
    0.9362  -14.0288   24.1658 N   0  0  0  0  0  0  0  0  0  0  0  0
    1.6589  -13.1536   25.3132 C   0  0  0  0  0  0  0  0  0  0  0  0
    2.2744  -12.4698   24.2647 C   0  0  0  0  0  0  0  0  0  0  0  0
    3.2273  -13.0623   23.6826 N   0  0  0  0  0  0  0  0  0  0  0  0
    2.5731  -14.1248   23.4143 C   0  0  0  0  0  0  0  0  0  0  0  0
   -2.7516  -10.5329   19.8610 H   0  0  0  0  0  0  0  0  0  0  0  0
   -3.3826  -11.9761   20.4468 H   0  0  0  0  0  0  0  0  0  0  0  0
   -3.3725  -10.4730   21.4625 H   0  0  0  0  0  0  0  0  0  0  0  0
   -1.0900  -11.7523   20.3353 H   0  0  0  0  0  0  0  0  0  0  0  0
    0.1577   -9.7641   21.5291 H   0  0  0  0  0  0  0  0  0  0  0  0
   -1.3875   -9.3519   22.2984 H   0  0  0  0  0  0  0  0  0  0  0  0
   -1.2292   -9.2605   20.5853 H   0  0  0  0  0  0  0  0  0  0  0  0
    0.6345  -11.8988   22.8211 H   0  0  0  0  0  0  0  0  0  0  0  0
   -0.1263  -11.3624   22.7555 H   0  0  0  0  0  0  0  0  0  0  0  0
   -1.0071  -13.5082   25.0954 H   0  0  0  0  0  0  0  0  0  0  0  0
   -1.4925  -14.7760   27.7690 H   0  0  0  0  0  0  0  0  0  0  0  0
   -3.6976  -16.9045   27.7286 H   0  0  0  0  0  0  0  0  0  0  0  0
   -3.9436  -15.3228   30.7011 H   0  0  0  0  0  0  0  0  0  0  0  0
   -3.2250  -16.7266   30.8981 H   0  0  0  0  0  0  0  0  0  0  0  0
   -5.6277  -18.1935   31.1124 H   0  0  0  0  0  0  0  0  0  0  0  0
   -7.0934  -16.2986   32.0929 H   0  0  0  0  0  0  0  0  0  0  0  0
   -5.3981  -15.9770   32.4160 H   0  0  0  0  0  0  0  0  0  0  0  0
   -5.4674  -14.1751   30.8212 H   0  0  0  0  0  0  0  0  0  0  0  0
   -7.1270  -14.5761   30.5301 H   0  0  0  0  0  0  0  0  0  0  0  0
   -6.3783  -15.0297   28.6508 H   0  0  0  0  0  0  0  0  0  0  0  0
  -10.6246  -20.3142   30.3593 H   0  0  0  0  0  0  0  0  0  0  0  0
  -10.5734  -22.3271   28.6839 H   0  0  0  0  0  0  0  0  0  0  0  0
   -8.2562  -21.2318   27.6629 H   0  0  0  0  0  0  0  0  0  0  0  0
    1.0329  -12.9793   26.1645 H   0  0  0  0  0  0  0  0  0  0  0  0
    2.1172  -11.5428   23.8982 H   0  0  0  0  0  0  0  0  0  0  0  0
    3.0520  -15.0686   23.2612 H   0  0  0  0  0  0  0  0  0  0  0  0
  1  2  1  0
  2  3  1  0
  2  4  1  0
  4  5  1  0
  5  6  1  0
  6  7  2  0
  6  8  1  0
  8  9  1  0
  9 10  1  0
 10 11  1  0
 11 12  1  0
 12 13  1  0
 13 14  1  0
 14 15  1  0
 15 16  1  0
 16 17  2  0
 17 18  1  0
 18 19  2  0
 19 20  1  0
 20 21  2  0
  5 22  1  0
 22 23  1  0
 23 24  2  0
 24 25  1  0
 25 26  2  0
 14  9  1  0
 21 16  1  0
 26 22  1  0
 15 11  1  0
  1 27  1  0
  1 28  1  0
  1 29  1  0
  2 30  1  0
  3 31  1  0
  3 32  1  0
  3 33  1  0
  4 34  1  0
  4 35  1  0
  5 36  1  0
  8 37  1  0
  9 38  1  0
 10 39  1  0
 10 40  1  0
 11 41  1  0
 12 42  1  0
 12 43  1  0
 13 44  1  0
 13 45  1  0
 14 46  1  0
 18 47  1  0
 19 48  1  0
 20 49  1  0
 23 50  1  0
 24 51  1  0
 26 52  1  0
M  END
>  <Energy>  (948) 
1709.6107967350731

>  <compound_id>  (948) 
28747

>  <target_id>  (948) 
1

>  <reference_id>  (948) 
80

>  <inspiration_ids>  (948) 
[80, 54]

>  <energy_score>  (948) 
1681.7175255579377

>  <distance_score>  (948) 
11.148982089732295

>  <path>  (948) 
/opt/xchem-fragalysis-2/maxwin/BulkDock/SCRATCH/511021/C28747-P80/C28747-P80.minimised.mol

>  <scratch_subdir>  (948) 
/opt/xchem-fragalysis-2/maxwin/BulkDock/SCRATCH/511021/C28747-P80

>  <fragmenstein_runtime>  (948) 
59.3182590007782

>  <fragmenstein_outcome>  (948) 
too moved

>  <fragmenstein_mode>  (948) 
expansion

>  <fragmenstein_error>  (948) 


$$$$
C28747-P54
     RDKit          3D

 52 55  0  0  0  0  0  0  0  0999 V2000
   -1.0238  -12.9669   20.8238 C   0  0  0  0  0  0  0  0  0  0  0  0
   -0.5520  -12.5740   22.1340 C   0  0  0  0  0  0  0  0  0  0  0  0
    1.0769  -11.5344   21.6775 C   0  0  0  0  0  0  0  0  0  0  0  0
   -2.0298  -12.4732   23.3820 C   0  0  0  0  0  0  0  0  0  0  0  0
   -1.5414  -12.7383   25.2279 C   0  0  0  0  0  0  0  0  0  0  0  0
   -2.4117  -14.8297   25.3737 C   0  0  0  0  0  0  0  0  0  0  0  0
   -1.8161  -15.7134   24.7870 O   0  0  0  0  0  0  0  0  0  0  0  0
   -4.0934  -15.4491   26.1578 N   0  0  0  0  0  0  0  0  0  0  0  0
   -5.2257  -17.3605   26.0830 C   0  0  0  0  0  0  0  0  0  0  0  0
   -4.9339  -19.2212   25.4350 C   0  0  0  0  0  0  0  0  0  0  0  0
   -5.5937  -20.9893   26.2461 C   0  0  0  0  0  0  0  0  0  0  0  0
   -4.6890  -21.0334   27.3800 C   0  0  0  0  0  0  0  0  0  0  0  0
   -5.5868  -20.0851   27.8461 C   0  0  0  0  0  0  0  0  0  0  0  0
   -6.2911  -18.9480   27.0072 C   0  0  0  0  0  0  0  0  0  0  0  0
   -7.1544  -20.5704   26.8579 N   0  0  0  0  0  0  0  0  0  0  0  0
   -8.3475  -21.2509   27.8922 C   0  0  0  0  0  0  0  0  0  0  0  0
   -9.4375  -20.4360   28.2428 N   0  0  0  0  0  0  0  0  0  0  0  0
  -10.6084  -20.8913   28.7631 C   0  0  0  0  0  0  0  0  0  0  0  0
  -10.8455  -22.1998   29.0273 C   0  0  0  0  0  0  0  0  0  0  0  0
   -9.7972  -23.0026   28.7102 C   0  0  0  0  0  0  0  0  0  0  0  0
   -8.6366  -22.5556   28.1623 N   0  0  0  0  0  0  0  0  0  0  0  0
    0.1571  -11.4559   24.6705 N   0  0  0  0  0  0  0  0  0  0  0  0
    0.1362   -9.4868   24.9154 C   0  0  0  0  0  0  0  0  0  0  0  0
    1.1920   -8.6725   25.1742 C   0  0  0  0  0  0  0  0  0  0  0  0
    0.8846   -8.6757   23.9417 N   0  0  0  0  0  0  0  0  0  0  0  0
    0.3601  -10.0346   23.6589 C   0  0  0  0  0  0  0  0  0  0  0  0
   -1.8580  -13.5789   21.0436 H   0  0  0  0  0  0  0  0  0  0  0  0
   -0.4421  -13.5901   20.1599 H   0  0  0  0  0  0  0  0  0  0  0  0
   -1.0337  -11.9859   20.3819 H   0  0  0  0  0  0  0  0  0  0  0  0
    0.0753  -13.0975   22.6228 H   0  0  0  0  0  0  0  0  0  0  0  0
    0.9767  -10.6389   21.0460 H   0  0  0  0  0  0  0  0  0  0  0  0
    1.8669  -12.1632   21.2089 H   0  0  0  0  0  0  0  0  0  0  0  0
    1.5222  -11.2380   22.5674 H   0  0  0  0  0  0  0  0  0  0  0  0
   -2.6687  -13.3441   23.1715 H   0  0  0  0  0  0  0  0  0  0  0  0
   -2.6040  -11.5535   23.2780 H   0  0  0  0  0  0  0  0  0  0  0  0
   -1.8719  -12.2659   26.1255 H   0  0  0  0  0  0  0  0  0  0  0  0
   -4.4705  -14.6822   26.6979 H   0  0  0  0  0  0  0  0  0  0  0  0
   -5.6437  -17.5422   25.1006 H   0  0  0  0  0  0  0  0  0  0  0  0
   -4.1960  -19.5979   25.9061 H   0  0  0  0  0  0  0  0  0  0  0  0
   -4.6374  -19.2716   24.3815 H   0  0  0  0  0  0  0  0  0  0  0  0
   -5.7110  -21.7534   25.4644 H   0  0  0  0  0  0  0  0  0  0  0  0
   -3.6938  -21.2372   27.1615 H   0  0  0  0  0  0  0  0  0  0  0  0
   -4.4105  -21.4383   28.3752 H   0  0  0  0  0  0  0  0  0  0  0  0
   -6.4814  -20.2383   28.4594 H   0  0  0  0  0  0  0  0  0  0  0  0
   -6.0169  -21.1311   28.1953 H   0  0  0  0  0  0  0  0  0  0  0  0
   -7.2479  -18.5779   27.1789 H   0  0  0  0  0  0  0  0  0  0  0  0
  -11.3359  -20.1152   28.9734 H   0  0  0  0  0  0  0  0  0  0  0  0
  -11.7633  -22.5616   29.4609 H   0  0  0  0  0  0  0  0  0  0  0  0
   -9.8353  -24.0753   28.8718 H   0  0  0  0  0  0  0  0  0  0  0  0
   -0.6925   -8.8130   25.3303 H   0  0  0  0  0  0  0  0  0  0  0  0
    1.3964   -7.7632   25.7204 H   0  0  0  0  0  0  0  0  0  0  0  0
   -0.5538   -9.9222   23.2320 H   0  0  0  0  0  0  0  0  0  0  0  0
  1  2  1  0
  2  3  1  0
  2  4  1  0
  4  5  1  0
  5  6  1  0
  6  7  2  0
  6  8  1  0
  8  9  1  0
  9 10  1  0
 10 11  1  0
 11 12  1  0
 12 13  1  0
 13 14  1  0
 14 15  1  0
 15 16  1  0
 16 17  2  0
 17 18  1  0
 18 19  2  0
 19 20  1  0
 20 21  2  0
  5 22  1  0
 22 23  1  0
 23 24  2  0
 24 25  1  0
 25 26  2  0
 14  9  1  0
 21 16  1  0
 26 22  1  0
 15 11  1  0
  1 27  1  0
  1 28  1  0
  1 29  1  0
  2 30  1  0
  3 31  1  0
  3 32  1  0
  3 33  1  0
  4 34  1  0
  4 35  1  0
  5 36  1  0
  8 37  1  0
  9 38  1  0
 10 39  1  0
 10 40  1  0
 11 41  1  0
 12 42  1  0
 12 43  1  0
 13 44  1  0
 13 45  1  0
 14 46  1  0
 18 47  1  0
 19 48  1  0
 20 49  1  0
 23 50  1  0
 24 51  1  0
 26 52  1  0
M  END
>  <Energy>  (949) 
2191.0215967529016

>  <compound_id>  (949) 
28747

>  <target_id>  (949) 
1

>  <reference_id>  (949) 
54

>  <inspiration_ids>  (949) 
[80, 54]

>  <energy_score>  (949) 
2163.1283255757185

>  <distance_score>  (949) 
10.483984018578493

>  <path>  (949) 
/opt/xchem-fragalysis-2/maxwin/BulkDock/SCRATCH/511021/C28747-P54/C28747-P54.minimised.mol

>  <scratch_subdir>  (949) 
/opt/xchem-fragalysis-2/maxwin/BulkDock/SCRATCH/511021/C28747-P54

>  <fragmenstein_runtime>  (949) 
53.932018518447876

>  <fragmenstein_outcome>  (949) 
too moved

>  <fragmenstein_mode>  (949) 
expansion

>  <fragmenstein_error>  (949) 


$$$$
C28748-P80
     RDKit          3D

 49 52  0  0  0  0  0  0  0  0999 V2000
    3.0743  -13.3874   23.9194 C   0  0  0  0  0  0  0  0  0  0  0  0
    4.2846  -13.6422   25.1724 C   0  0  0  0  0  0  0  0  0  0  0  0
    4.7404  -14.9598   24.8095 C   0  0  0  0  0  0  0  0  0  0  0  0
    5.8113  -12.4059   25.4560 C   0  0  0  0  0  0  0  0  0  0  0  0
    5.9604  -11.6334   26.8653 C   0  0  0  0  0  0  0  0  0  0  0  0
    5.9574  -13.0160   27.2489 C   0  0  0  0  0  0  0  0  0  0  0  0
    7.1278  -13.4781   27.1712 O   0  0  0  0  0  0  0  0  0  0  0  0
    4.3396  -13.8686   27.6301 N   0  0  0  0  0  0  0  0  0  0  0  0
    3.9148  -15.7131   27.8924 C   0  0  0  0  0  0  0  0  0  0  0  0
    2.4796  -16.3825   28.4540 C   0  0  0  0  0  0  0  0  0  0  0  0
    1.8022  -17.6274   27.9128 C   0  0  0  0  0  0  0  0  0  0  0  0
    1.9214  -18.5529   28.9856 N   0  0  0  0  0  0  0  0  0  0  0  0
    0.9503  -19.5160   29.1331 C   0  0  0  0  0  0  0  0  0  0  0  0
    1.1002  -20.5186   30.0031 N   0  0  0  0  0  0  0  0  0  0  0  0
    0.0860  -21.4188   30.1028 C   0  0  0  0  0  0  0  0  0  0  0  0
   -1.0884  -21.3727   29.3921 C   0  0  0  0  0  0  0  0  0  0  0  0
   -1.1778  -20.3147   28.5410 C   0  0  0  0  0  0  0  0  0  0  0  0
   -0.1852  -19.4105   28.3909 N   0  0  0  0  0  0  0  0  0  0  0  0
    3.2570  -18.3667   29.5317 C   0  0  0  0  0  0  0  0  0  0  0  0
    3.6188  -16.8224   29.2753 C   0  0  0  0  0  0  0  0  0  0  0  0
    7.2000  -10.7519   26.6419 N   0  0  0  0  0  0  0  0  0  0  0  0
    8.4356  -11.0672   26.1158 C   0  0  0  0  0  0  0  0  0  0  0  0
    9.0285   -9.8771   25.7529 C   0  0  0  0  0  0  0  0  0  0  0  0
    8.2204   -8.8238   26.0633 N   0  0  0  0  0  0  0  0  0  0  0  0
    7.1431   -9.3644   26.5882 C   0  0  0  0  0  0  0  0  0  0  0  0
    2.9564  -14.2957   23.3334 H   0  0  0  0  0  0  0  0  0  0  0  0
    2.1651  -13.0029   24.3855 H   0  0  0  0  0  0  0  0  0  0  0  0
    3.2772  -12.5981   23.1592 H   0  0  0  0  0  0  0  0  0  0  0  0
    4.0766  -12.7263   24.6441 H   0  0  0  0  0  0  0  0  0  0  0  0
    4.4555  -15.4354   23.8872 H   0  0  0  0  0  0  0  0  0  0  0  0
    4.1215  -15.3008   25.5514 H   0  0  0  0  0  0  0  0  0  0  0  0
    5.6609  -15.3281   25.1801 H   0  0  0  0  0  0  0  0  0  0  0  0
    6.7960  -12.7993   25.2126 H   0  0  0  0  0  0  0  0  0  0  0  0
    5.9170  -11.6966   24.6105 H   0  0  0  0  0  0  0  0  0  0  0  0
    5.3159  -11.0003   27.4642 H   0  0  0  0  0  0  0  0  0  0  0  0
    3.5686  -13.2293   27.5326 H   0  0  0  0  0  0  0  0  0  0  0  0
    3.8537  -16.1369   26.9481 H   0  0  0  0  0  0  0  0  0  0  0  0
    1.7761  -15.9806   29.1638 H   0  0  0  0  0  0  0  0  0  0  0  0
    2.3315  -18.0156   27.0371 H   0  0  0  0  0  0  0  0  0  0  0  0
    0.7589  -17.4746   27.7016 H   0  0  0  0  0  0  0  0  0  0  0  0
    0.2733  -22.2174   30.8145 H   0  0  0  0  0  0  0  0  0  0  0  0
   -1.8788  -22.0967   29.5110 H   0  0  0  0  0  0  0  0  0  0  0  0
   -2.0589  -20.1445   27.9320 H   0  0  0  0  0  0  0  0  0  0  0  0
    3.2758  -18.5625   30.6087 H   0  0  0  0  0  0  0  0  0  0  0  0
    3.9739  -19.0155   29.0228 H   0  0  0  0  0  0  0  0  0  0  0  0
    3.8314  -16.3962   30.2524 H   0  0  0  0  0  0  0  0  0  0  0  0
    8.7852  -12.0864   26.0203 H   0  0  0  0  0  0  0  0  0  0  0  0
    9.9981   -9.7319   25.2948 H   0  0  0  0  0  0  0  0  0  0  0  0
    6.2781   -8.8071   26.9200 H   0  0  0  0  0  0  0  0  0  0  0  0
  1  2  1  0
  2  3  1  0
  2  4  1  0
  4  5  1  0
  5  6  1  0
  6  7  2  0
  6  8  1  0
  8  9  1  0
  9 10  1  0
 10 11  1  0
 11 12  1  0
 12 13  1  0
 13 14  2  0
 14 15  1  0
 15 16  2  0
 16 17  1  0
 17 18  2  0
 12 19  1  0
 19 20  1  0
  5 21  1  0
 21 22  1  0
 22 23  2  0
 23 24  1  0
 24 25  2  0
 20  9  1  0
 25 21  1  0
 20 10  1  0
 18 13  1  0
  1 26  1  0
  1 27  1  0
  1 28  1  0
  2 29  1  0
  3 30  1  0
  3 31  1  0
  3 32  1  0
  4 33  1  0
  4 34  1  0
  5 35  1  0
  8 36  1  0
  9 37  1  0
 10 38  1  0
 11 39  1  0
 11 40  1  0
 15 41  1  0
 16 42  1  0
 17 43  1  0
 19 44  1  0
 19 45  1  0
 20 46  1  0
 22 47  1  0
 23 48  1  0
 25 49  1  0
M  END
>  <Energy>  (950) 
422.90387195888889

>  <compound_id>  (950) 
28748

>  <target_id>  (950) 
1

>  <reference_id>  (950) 
80

>  <inspiration_ids>  (950) 
[80, 54]

>  <energy_score>  (950) 
439.94970212543154

>  <distance_score>  (950) 
13.292467720483604

>  <path>  (950) 
/opt/xchem-fragalysis-2/maxwin/BulkDock/SCRATCH/511021/C28748-P80/C28748-P80.minimised.mol

>  <scratch_subdir>  (950) 
/opt/xchem-fragalysis-2/maxwin/BulkDock/SCRATCH/511021/C28748-P80

>  <fragmenstein_runtime>  (950) 
63.127442598342896

>  <fragmenstein_outcome>  (950) 
too moved

>  <fragmenstein_mode>  (950) 
expansion

>  <fragmenstein_error>  (950) 


$$$$
C28748-P54
     RDKit          3D

 49 52  0  0  0  0  0  0  0  0999 V2000
    4.1307  -20.6267   17.3507 C   0  0  0  0  0  0  0  0  0  0  0  0
    2.9412  -20.6803   18.3088 C   0  0  0  0  0  0  0  0  0  0  0  0
    2.6890  -22.1167   18.7687 C   0  0  0  0  0  0  0  0  0  0  0  0
    3.0683  -19.6888   19.4890 C   0  0  0  0  0  0  0  0  0  0  0  0
    4.3129  -19.8623   20.3977 C   0  0  0  0  0  0  0  0  0  0  0  0
    3.9295  -20.0067   21.9797 C   0  0  0  0  0  0  0  0  0  0  0  0
    4.6168  -19.4291   22.7824 O   0  0  0  0  0  0  0  0  0  0  0  0
    2.7888  -20.9553   22.1808 N   0  0  0  0  0  0  0  0  0  0  0  0
    2.1052  -21.3902   23.4050 C   0  0  0  0  0  0  0  0  0  0  0  0
    0.9175  -22.3685   23.2870 C   0  0  0  0  0  0  0  0  0  0  0  0
    0.3949  -23.2947   24.3693 C   0  0  0  0  0  0  0  0  0  0  0  0
   -0.5003  -22.4637   25.1848 N   0  0  0  0  0  0  0  0  0  0  0  0
   -1.8523  -22.4910   24.8003 C   0  0  0  0  0  0  0  0  0  0  0  0
   -2.6801  -21.5681   25.3184 N   0  0  0  0  0  0  0  0  0  0  0  0
   -3.9430  -21.5397   24.8561 C   0  0  0  0  0  0  0  0  0  0  0  0
   -4.4381  -22.3984   23.9092 C   0  0  0  0  0  0  0  0  0  0  0  0
   -3.5497  -23.3412   23.4800 C   0  0  0  0  0  0  0  0  0  0  0  0
   -2.2785  -23.4154   23.9191 N   0  0  0  0  0  0  0  0  0  0  0  0
    0.0504  -21.1011   25.1445 C   0  0  0  0  0  0  0  0  0  0  0  0
    0.6787  -20.9784   23.7629 C   0  0  0  0  0  0  0  0  0  0  0  0
    5.4423  -18.8967   20.0440 N   0  0  0  0  0  0  0  0  0  0  0  0
    5.4843  -17.8648   19.1236 C   0  0  0  0  0  0  0  0  0  0  0  0
    6.7607  -17.3490   19.1389 C   0  0  0  0  0  0  0  0  0  0  0  0
    7.5488  -18.0866   19.9686 N   0  0  0  0  0  0  0  0  0  0  0  0
    6.7658  -19.0509   20.4171 C   0  0  0  0  0  0  0  0  0  0  0  0
    4.2824  -19.6101   16.9749 H   0  0  0  0  0  0  0  0  0  0  0  0
    3.9538  -21.2722   16.4833 H   0  0  0  0  0  0  0  0  0  0  0  0
    5.0569  -20.9623   17.8269 H   0  0  0  0  0  0  0  0  0  0  0  0
    2.0561  -20.3716   17.7356 H   0  0  0  0  0  0  0  0  0  0  0  0
    1.7876  -22.1740   19.3872 H   0  0  0  0  0  0  0  0  0  0  0  0
    2.5346  -22.7748   17.9065 H   0  0  0  0  0  0  0  0  0  0  0  0
    3.5279  -22.5179   19.3449 H   0  0  0  0  0  0  0  0  0  0  0  0
    3.0446  -18.6885   19.0714 H   0  0  0  0  0  0  0  0  0  0  0  0
    2.1376  -19.7273   20.0647 H   0  0  0  0  0  0  0  0  0  0  0  0
    4.7844  -20.8308   20.1787 H   0  0  0  0  0  0  0  0  0  0  0  0
    2.3874  -21.1867   21.2843 H   0  0  0  0  0  0  0  0  0  0  0  0
    2.7980  -21.5401   24.2289 H   0  0  0  0  0  0  0  0  0  0  0  0
    0.5350  -22.6309   22.3090 H   0  0  0  0  0  0  0  0  0  0  0  0
   -0.0563  -24.2027   23.9555 H   0  0  0  0  0  0  0  0  0  0  0  0
    1.2355  -23.6219   24.9937 H   0  0  0  0  0  0  0  0  0  0  0  0
   -4.5524  -20.7772   25.3154 H   0  0  0  0  0  0  0  0  0  0  0  0
   -5.4571  -22.3840   23.5576 H   0  0  0  0  0  0  0  0  0  0  0  0
   -3.8365  -24.0974   22.7564 H   0  0  0  0  0  0  0  0  0  0  0  0
   -0.6747  -20.3161   25.3584 H   0  0  0  0  0  0  0  0  0  0  0  0
    0.8366  -21.0161   25.9050 H   0  0  0  0  0  0  0  0  0  0  0  0
    0.1319  -20.3233   23.0995 H   0  0  0  0  0  0  0  0  0  0  0  0
    4.6442  -17.5726   18.5263 H   0  0  0  0  0  0  0  0  0  0  0  0
    7.1510  -16.5159   18.5699 H   0  0  0  0  0  0  0  0  0  0  0  0
    7.0818  -19.8623   21.0609 H   0  0  0  0  0  0  0  0  0  0  0  0
  1  2  1  0
  2  3  1  0
  2  4  1  0
  4  5  1  0
  5  6  1  0
  6  7  2  0
  6  8  1  0
  8  9  1  0
  9 10  1  0
 10 11  1  0
 11 12  1  0
 12 13  1  0
 13 14  2  0
 14 15  1  0
 15 16  2  0
 16 17  1  0
 17 18  2  0
 12 19  1  0
 19 20  1  0
  5 21  1  0
 21 22  1  0
 22 23  2  0
 23 24  1  0
 24 25  2  0
 20  9  1  0
 25 21  1  0
 20 10  1  0
 18 13  1  0
  1 26  1  0
  1 27  1  0
  1 28  1  0
  2 29  1  0
  3 30  1  0
  3 31  1  0
  3 32  1  0
  4 33  1  0
  4 34  1  0
  5 35  1  0
  8 36  1  0
  9 37  1  0
 10 38  1  0
 11 39  1  0
 11 40  1  0
 15 41  1  0
 16 42  1  0
 17 43  1  0
 19 44  1  0
 19 45  1  0
 20 46  1  0
 22 47  1  0
 23 48  1  0
 25 49  1  0
M  END
>  <Energy>  (951) 
-15.589613881359268

>  <compound_id>  (951) 
28748

>  <target_id>  (951) 
1

>  <reference_id>  (951) 
54

>  <inspiration_ids>  (951) 
[80, 54]

>  <energy_score>  (951) 
1.4562162851867697

>  <distance_score>  (951) 
13.716041842434448

>  <path>  (951) 
/opt/xchem-fragalysis-2/maxwin/BulkDock/SCRATCH/511021/C28748-P54/C28748-P54.minimised.mol

>  <scratch_subdir>  (951) 
/opt/xchem-fragalysis-2/maxwin/BulkDock/SCRATCH/511021/C28748-P54

>  <fragmenstein_runtime>  (951) 
51.13454747200012

>  <fragmenstein_outcome>  (951) 
too moved

>  <fragmenstein_mode>  (951) 
expansion

>  <fragmenstein_error>  (951) 


$$$$
C50847-P80
     RDKit          3D

 43 45  0  0  0  0  0  0  0  0999 V2000
    1.2346  -14.0644   17.7227 C   0  0  0  0  0  0  0  0  0  0  0  0
    1.8796  -15.1339   18.4967 C   0  0  0  0  0  0  0  0  0  0  0  0
    2.7432  -15.7128   17.4786 C   0  0  0  0  0  0  0  0  0  0  0  0
    0.7533  -16.0508   19.7659 C   0  0  0  0  0  0  0  0  0  0  0  0
    1.1567  -15.1981   20.9586 C   0  0  0  0  0  0  0  0  0  0  0  0
   -0.3476  -16.0315   22.0175 C   0  0  0  0  0  0  0  0  0  0  0  0
   -0.5866  -17.1932   21.5409 O   0  0  0  0  0  0  0  0  0  0  0  0
   -1.2687  -15.3566   23.7328 N   0  0  0  0  0  0  0  0  0  0  0  0
   -2.4439  -16.2673   25.0082 C   0  0  0  0  0  0  0  0  0  0  0  0
   -2.4325  -16.4506   26.7860 C   0  0  0  0  0  0  0  0  0  0  0  0
   -3.3568  -17.2782   27.4031 N   0  0  0  0  0  0  0  0  0  0  0  0
   -3.7397  -18.0548   26.4530 N   0  0  0  0  0  0  0  0  0  0  0  0
   -2.5523  -17.9672   25.7687 C   0  0  0  0  0  0  0  0  0  0  0  0
   -1.9226  -19.3712   25.8499 C   0  0  0  0  0  0  0  0  0  0  0  0
   -2.7140  -20.4727   26.2908 C   0  0  0  0  0  0  0  0  0  0  0  0
   -2.2997  -21.7635   26.3098 N   0  0  0  0  0  0  0  0  0  0  0  0
   -1.0583  -21.9338   25.8262 C   0  0  0  0  0  0  0  0  0  0  0  0
   -0.2753  -20.8675   25.3893 C   0  0  0  0  0  0  0  0  0  0  0  0
   -0.6763  -19.5655   25.4042 N   0  0  0  0  0  0  0  0  0  0  0  0
    2.7586  -14.0524   20.6856 N   0  0  0  0  0  0  0  0  0  0  0  0
    3.5749  -13.0035   21.4135 C   0  0  0  0  0  0  0  0  0  0  0  0
    4.7338  -12.4795   20.7441 C   0  0  0  0  0  0  0  0  0  0  0  0
    5.0307  -12.9372   19.5936 N   0  0  0  0  0  0  0  0  0  0  0  0
    3.8908  -13.4840   19.3323 C   0  0  0  0  0  0  0  0  0  0  0  0
    1.1793  -14.1754   16.6548 H   0  0  0  0  0  0  0  0  0  0  0  0
    2.0671  -13.5406   18.0118 H   0  0  0  0  0  0  0  0  0  0  0  0
    0.3148  -13.5686   17.9935 H   0  0  0  0  0  0  0  0  0  0  0  0
    2.6487  -14.9607   19.1171 H   0  0  0  0  0  0  0  0  0  0  0  0
    3.7874  -15.4219   17.6646 H   0  0  0  0  0  0  0  0  0  0  0  0
    2.3727  -16.7699   17.4199 H   0  0  0  0  0  0  0  0  0  0  0  0
    2.5787  -15.5076   16.4601 H   0  0  0  0  0  0  0  0  0  0  0  0
   -0.3472  -15.8538   19.7311 H   0  0  0  0  0  0  0  0  0  0  0  0
    0.6476  -17.1078   19.7746 H   0  0  0  0  0  0  0  0  0  0  0  0
    0.7323  -14.7421   21.8992 H   0  0  0  0  0  0  0  0  0  0  0  0
   -0.8780  -14.4442   23.9915 H   0  0  0  0  0  0  0  0  0  0  0  0
   -1.9761  -15.7291   27.4831 H   0  0  0  0  0  0  0  0  0  0  0  0
   -3.7643  -17.2847   28.3397 H   0  0  0  0  0  0  0  0  0  0  0  0
   -3.7453  -20.3493   26.6097 H   0  0  0  0  0  0  0  0  0  0  0  0
   -0.6899  -22.9531   25.7912 H   0  0  0  0  0  0  0  0  0  0  0  0
    0.7245  -21.0366   24.9969 H   0  0  0  0  0  0  0  0  0  0  0  0
    3.2627  -12.6820   22.4093 H   0  0  0  0  0  0  0  0  0  0  0  0
    5.3779  -11.6597   21.0379 H   0  0  0  0  0  0  0  0  0  0  0  0
    3.6938  -13.8305   18.3654 H   0  0  0  0  0  0  0  0  0  0  0  0
  1  2  1  0
  2  3  1  0
  2  4  1  0
  4  5  1  0
  5  6  1  0
  6  7  2  0
  6  8  1  0
  8  9  1  0
  9 10  2  0
 10 11  1  0
 11 12  1  0
 12 13  2  0
 13 14  1  0
 14 15  2  0
 15 16  1  0
 16 17  2  0
 17 18  1  0
 18 19  2  0
  5 20  1  0
 20 21  1  0
 21 22  2  0
 22 23  1  0
 23 24  2  0
 13  9  1  0
 19 14  1  0
 24 20  1  0
  1 25  1  0
  1 26  1  0
  1 27  1  0
  2 28  1  0
  3 29  1  0
  3 30  1  0
  3 31  1  0
  4 32  1  0
  4 33  1  0
  5 34  1  0
  8 35  1  0
 10 36  1  0
 11 37  1  0
 15 38  1  0
 17 39  1  0
 18 40  1  0
 21 41  1  0
 22 42  1  0
 24 43  1  0
M  END
>  <Energy>  (952) 
1200.1501747384382

>  <compound_id>  (952) 
50847

>  <target_id>  (952) 
1

>  <reference_id>  (952) 
80

>  <inspiration_ids>  (952) 
[80, 54]

>  <energy_score>  (952) 
1034.4496264842119

>  <distance_score>  (952) 
12.254384613321195

>  <path>  (952) 
/opt/xchem-fragalysis-2/maxwin/BulkDock/SCRATCH/511021/C50847-P80/C50847-P80.minimised.mol

>  <scratch_subdir>  (952) 
/opt/xchem-fragalysis-2/maxwin/BulkDock/SCRATCH/511021/C50847-P80

>  <fragmenstein_runtime>  (952) 
41.92288160324097

>  <fragmenstein_outcome>  (952) 
too moved

>  <fragmenstein_mode>  (952) 
expansion

>  <fragmenstein_error>  (952) 


$$$$
C50847-P54
     RDKit          3D

 43 45  0  0  0  0  0  0  0  0999 V2000
    5.6097  -21.6995   29.2610 C   0  0  0  0  0  0  0  0  0  0  0  0
    5.6479  -22.1816   27.8140 C   0  0  0  0  0  0  0  0  0  0  0  0
    6.0301  -23.6670   27.7850 C   0  0  0  0  0  0  0  0  0  0  0  0
    4.3165  -21.9868   27.0548 C   0  0  0  0  0  0  0  0  0  0  0  0
    3.7650  -20.5465   26.8833 C   0  0  0  0  0  0  0  0  0  0  0  0
    2.8246  -20.1826   28.1086 C   0  0  0  0  0  0  0  0  0  0  0  0
    3.3356  -19.6397   29.0528 O   0  0  0  0  0  0  0  0  0  0  0  0
    1.4315  -20.6681   27.9088 N   0  0  0  0  0  0  0  0  0  0  0  0
    0.3442  -20.7169   28.7893 C   0  0  0  0  0  0  0  0  0  0  0  0
    0.4703  -20.5588   30.1543 C   0  0  0  0  0  0  0  0  0  0  0  0
   -0.7615  -20.7298   30.7086 N   0  0  0  0  0  0  0  0  0  0  0  0
   -1.7254  -20.9085   29.8046 N   0  0  0  0  0  0  0  0  0  0  0  0
   -1.0894  -20.9053   28.6118 C   0  0  0  0  0  0  0  0  0  0  0  0
   -1.9231  -21.0090   27.4112 C   0  0  0  0  0  0  0  0  0  0  0  0
   -3.1786  -20.3946   27.3893 C   0  0  0  0  0  0  0  0  0  0  0  0
   -4.0512  -20.4984   26.3560 N   0  0  0  0  0  0  0  0  0  0  0  0
   -3.6082  -21.2366   25.3185 C   0  0  0  0  0  0  0  0  0  0  0  0
   -2.3560  -21.8327   25.3214 C   0  0  0  0  0  0  0  0  0  0  0  0
   -1.4787  -21.7334   26.3577 N   0  0  0  0  0  0  0  0  0  0  0  0
    4.8214  -19.5646   26.4504 N   0  0  0  0  0  0  0  0  0  0  0  0
    5.5858  -19.7029   25.3010 C   0  0  0  0  0  0  0  0  0  0  0  0
    6.5897  -18.7730   25.4086 C   0  0  0  0  0  0  0  0  0  0  0  0
    6.3577  -17.9394   26.4603 N   0  0  0  0  0  0  0  0  0  0  0  0
    5.2966  -18.4340   27.0681 C   0  0  0  0  0  0  0  0  0  0  0  0
    4.7401  -22.0985   29.7934 H   0  0  0  0  0  0  0  0  0  0  0  0
    5.5840  -20.6086   29.3111 H   0  0  0  0  0  0  0  0  0  0  0  0
    6.5085  -22.0152   29.8022 H   0  0  0  0  0  0  0  0  0  0  0  0
    6.4455  -21.6375   27.2954 H   0  0  0  0  0  0  0  0  0  0  0  0
    7.0000  -23.8297   28.2672 H   0  0  0  0  0  0  0  0  0  0  0  0
    6.1084  -24.0296   26.7545 H   0  0  0  0  0  0  0  0  0  0  0  0
    5.2857  -24.2791   28.3057 H   0  0  0  0  0  0  0  0  0  0  0  0
    4.4540  -22.4042   26.0470 H   0  0  0  0  0  0  0  0  0  0  0  0
    3.5452  -22.6116   27.5252 H   0  0  0  0  0  0  0  0  0  0  0  0
    3.1098  -20.6007   26.0044 H   0  0  0  0  0  0  0  0  0  0  0  0
    1.3276  -21.0021   26.9555 H   0  0  0  0  0  0  0  0  0  0  0  0
    1.3351  -20.3786   30.7781 H   0  0  0  0  0  0  0  0  0  0  0  0
   -1.0169  -20.7158   31.6922 H   0  0  0  0  0  0  0  0  0  0  0  0
   -3.5088  -19.7773   28.2165 H   0  0  0  0  0  0  0  0  0  0  0  0
   -4.2823  -21.3477   24.4782 H   0  0  0  0  0  0  0  0  0  0  0  0
   -2.0189  -22.4199   24.4735 H   0  0  0  0  0  0  0  0  0  0  0  0
    5.4167  -20.5065   24.5985 H   0  0  0  0  0  0  0  0  0  0  0  0
    7.4655  -18.6627   24.7869 H   0  0  0  0  0  0  0  0  0  0  0  0
    4.8691  -18.0387   27.9806 H   0  0  0  0  0  0  0  0  0  0  0  0
  1  2  1  0
  2  3  1  0
  2  4  1  0
  4  5  1  0
  5  6  1  0
  6  7  2  0
  6  8  1  0
  8  9  1  0
  9 10  2  0
 10 11  1  0
 11 12  1  0
 12 13  2  0
 13 14  1  0
 14 15  2  0
 15 16  1  0
 16 17  2  0
 17 18  1  0
 18 19  2  0
  5 20  1  0
 20 21  1  0
 21 22  2  0
 22 23  1  0
 23 24  2  0
 13  9  1  0
 19 14  1  0
 24 20  1  0
  1 25  1  0
  1 26  1  0
  1 27  1  0
  2 28  1  0
  3 29  1  0
  3 30  1  0
  3 31  1  0
  4 32  1  0
  4 33  1  0
  5 34  1  0
  8 35  1  0
 10 36  1  0
 11 37  1  0
 15 38  1  0
 17 39  1  0
 18 40  1  0
 21 41  1  0
 22 42  1  0
 24 43  1  0
M  END
>  <Energy>  (953) 
125.12680293461364

>  <compound_id>  (953) 
50847

>  <target_id>  (953) 
1

>  <reference_id>  (953) 
54

>  <inspiration_ids>  (953) 
[80, 54]

>  <energy_score>  (953) 
-40.573745319627164

>  <distance_score>  (953) 
14.18477651899572

>  <path>  (953) 
/opt/xchem-fragalysis-2/maxwin/BulkDock/SCRATCH/511021/C50847-P54/C50847-P54.minimised.mol

>  <scratch_subdir>  (953) 
/opt/xchem-fragalysis-2/maxwin/BulkDock/SCRATCH/511021/C50847-P54

>  <fragmenstein_runtime>  (953) 
46.10134410858154

>  <fragmenstein_outcome>  (953) 
too moved

>  <fragmenstein_mode>  (953) 
expansion

>  <fragmenstein_error>  (953) 


$$$$
C28749-P80
     RDKit          3D

 48 50  0  0  0  0  0  0  0  0999 V2000
    8.4286   -9.2246   25.3075 C   0  0  0  0  0  0  0  0  0  0  0  0
    6.9819   -9.6423   25.5394 C   0  0  0  0  0  0  0  0  0  0  0  0
    6.8275   -9.6784   27.0846 C   0  0  0  0  0  0  0  0  0  0  0  0
    5.7965   -8.6994   24.9002 C   0  0  0  0  0  0  0  0  0  0  0  0
    4.6807   -9.2251   23.3155 C   0  0  0  0  0  0  0  0  0  0  0  0
    4.3084  -11.1341   22.4581 C   0  0  0  0  0  0  0  0  0  0  0  0
    5.0092  -11.2855   21.4608 O   0  0  0  0  0  0  0  0  0  0  0  0
    3.2193  -12.5284   23.1233 N   0  0  0  0  0  0  0  0  0  0  0  0
    3.0237  -14.4423   22.5687 C   0  0  0  0  0  0  0  0  0  0  0  0
    1.4830  -15.4219   22.3606 C   0  0  0  0  0  0  0  0  0  0  0  0
    1.8954  -16.7721   21.8384 C   0  0  0  0  0  0  0  0  0  0  0  0
    2.8049  -17.2176   22.8485 N   0  0  0  0  0  0  0  0  0  0  0  0
    2.1275  -18.0769   23.7538 C   0  0  0  0  0  0  0  0  0  0  0  0
    0.8176  -18.3933   23.5153 N   0  0  0  0  0  0  0  0  0  0  0  0
    0.1104  -19.1551   24.3803 C   0  0  0  0  0  0  0  0  0  0  0  0
    0.6510  -19.6669   25.5185 C   0  0  0  0  0  0  0  0  0  0  0  0
    1.9744  -19.3424   25.6936 C   0  0  0  0  0  0  0  0  0  0  0  0
    2.7207  -18.5703   24.8489 N   0  0  0  0  0  0  0  0  0  0  0  0
    3.7977  -15.9586   23.0301 C   0  0  0  0  0  0  0  0  0  0  0  0
    5.4523   -7.4886   22.4001 N   0  0  0  0  0  0  0  0  0  0  0  0
    6.7716   -6.5657   21.2768 C   0  0  0  0  0  0  0  0  0  0  0  0
    6.1072   -5.0898   20.0038 C   0  0  0  0  0  0  0  0  0  0  0  0
    4.2214   -4.9878   21.0232 N   0  0  0  0  0  0  0  0  0  0  0  0
    4.9355   -6.2957   22.5345 C   0  0  0  0  0  0  0  0  0  0  0  0
    8.7748   -9.5985   24.3559 H   0  0  0  0  0  0  0  0  0  0  0  0
    8.5887   -8.1513   25.3625 H   0  0  0  0  0  0  0  0  0  0  0  0
    9.1000   -9.6838   26.0436 H   0  0  0  0  0  0  0  0  0  0  0  0
    6.9033  -10.6688   25.1571 H   0  0  0  0  0  0  0  0  0  0  0  0
    7.5096  -10.4166   27.5219 H   0  0  0  0  0  0  0  0  0  0  0  0
    5.8199   -9.9499   27.4090 H   0  0  0  0  0  0  0  0  0  0  0  0
    7.0643   -8.7030   27.5230 H   0  0  0  0  0  0  0  0  0  0  0  0
    5.1666   -8.4644   25.7359 H   0  0  0  0  0  0  0  0  0  0  0  0
    6.2966   -7.7649   24.6396 H   0  0  0  0  0  0  0  0  0  0  0  0
    5.4955  -10.1752   23.5307 H   0  0  0  0  0  0  0  0  0  0  0  0
    2.7914  -12.2275   23.9908 H   0  0  0  0  0  0  0  0  0  0  0  0
    3.2993  -14.3556   21.4787 H   0  0  0  0  0  0  0  0  0  0  0  0
    0.8662  -15.3976   23.2525 H   0  0  0  0  0  0  0  0  0  0  0  0
    0.8055  -15.1378   21.5564 H   0  0  0  0  0  0  0  0  0  0  0  0
    2.4413  -16.6488   20.8926 H   0  0  0  0  0  0  0  0  0  0  0  0
    1.0462  -17.4113   21.5722 H   0  0  0  0  0  0  0  0  0  0  0  0
   -0.9228  -19.3347   24.1035 H   0  0  0  0  0  0  0  0  0  0  0  0
    0.0980  -20.2765   26.2154 H   0  0  0  0  0  0  0  0  0  0  0  0
    2.5211  -19.7003   26.5623 H   0  0  0  0  0  0  0  0  0  0  0  0
    4.4723  -15.9419   23.8917 H   0  0  0  0  0  0  0  0  0  0  0  0
    4.4533  -16.1685   22.1911 H   0  0  0  0  0  0  0  0  0  0  0  0
    7.1662   -6.1679   22.2482 H   0  0  0  0  0  0  0  0  0  0  0  0
    5.9226   -5.3051   18.9342 H   0  0  0  0  0  0  0  0  0  0  0  0
    3.9168   -5.2282   21.6355 H   0  0  0  0  0  0  0  0  0  0  0  0
  1  2  1  0
  2  3  1  0
  2  4  1  0
  4  5  1  0
  5  6  1  0
  6  7  2  0
  6  8  1  0
  8  9  1  0
  9 10  1  0
 10 11  1  0
 11 12  1  0
 12 13  1  0
 13 14  2  0
 14 15  1  0
 15 16  2  0
 16 17  1  0
 17 18  2  0
 12 19  1  0
  5 20  1  0
 20 21  1  0
 21 22  2  0
 22 23  1  0
 23 24  2  0
 19  9  1  0
 24 20  1  0
 18 13  1  0
  1 25  1  0
  1 26  1  0
  1 27  1  0
  2 28  1  0
  3 29  1  0
  3 30  1  0
  3 31  1  0
  4 32  1  0
  4 33  1  0
  5 34  1  0
  8 35  1  0
  9 36  1  0
 10 37  1  0
 10 38  1  0
 11 39  1  0
 11 40  1  0
 15 41  1  0
 16 42  1  0
 17 43  1  0
 19 44  1  0
 19 45  1  0
 21 46  1  0
 22 47  1  0
 24 48  1  0
M  END
>  <Energy>  (954) 
1811.2010774947071

>  <compound_id>  (954) 
28749

>  <target_id>  (954) 
1

>  <reference_id>  (954) 
80

>  <inspiration_ids>  (954) 
[80, 54]

>  <energy_score>  (954) 
1810.9207456447605

>  <distance_score>  (954) 
14.313900238404157

>  <path>  (954) 
/opt/xchem-fragalysis-2/maxwin/BulkDock/SCRATCH/511021/C28749-P80/C28749-P80.minimised.mol

>  <scratch_subdir>  (954) 
/opt/xchem-fragalysis-2/maxwin/BulkDock/SCRATCH/511021/C28749-P80

>  <fragmenstein_runtime>  (954) 
30.92305278778076

>  <fragmenstein_outcome>  (954) 
too moved

>  <fragmenstein_mode>  (954) 
expansion

>  <fragmenstein_error>  (954) 


$$$$
C28749-P54
     RDKit          3D

 48 50  0  0  0  0  0  0  0  0999 V2000
    5.6499  -10.4889   23.5845 C   0  0  0  0  0  0  0  0  0  0  0  0
    4.3323  -10.7981   24.8089 C   0  0  0  0  0  0  0  0  0  0  0  0
    4.6678   -9.0903   25.2507 C   0  0  0  0  0  0  0  0  0  0  0  0
    3.4420  -12.5943   25.3293 C   0  0  0  0  0  0  0  0  0  0  0  0
    1.6403  -13.3701   25.7067 C   0  0  0  0  0  0  0  0  0  0  0  0
    0.7400  -15.2853   25.8499 C   0  0  0  0  0  0  0  0  0  0  0  0
    1.4608  -16.1255   25.3287 O   0  0  0  0  0  0  0  0  0  0  0  0
   -0.9125  -15.7224   26.5750 N   0  0  0  0  0  0  0  0  0  0  0  0
   -1.9196  -17.4008   26.5907 C   0  0  0  0  0  0  0  0  0  0  0  0
   -1.8893  -18.4020   27.9080 C   0  0  0  0  0  0  0  0  0  0  0  0
   -2.9627  -19.8402   27.8750 C   0  0  0  0  0  0  0  0  0  0  0  0
   -4.3380  -19.5298   27.2999 N   0  0  0  0  0  0  0  0  0  0  0  0
   -5.7144  -20.6188   27.5834 C   0  0  0  0  0  0  0  0  0  0  0  0
   -7.0466  -20.4052   27.3917 N   0  0  0  0  0  0  0  0  0  0  0  0
   -8.3289  -21.3467   27.9439 C   0  0  0  0  0  0  0  0  0  0  0  0
   -8.4810  -22.4943   28.6759 C   0  0  0  0  0  0  0  0  0  0  0  0
   -7.2185  -22.4602   29.1682 C   0  0  0  0  0  0  0  0  0  0  0  0
   -5.9021  -21.6826   28.5824 N   0  0  0  0  0  0  0  0  0  0  0  0
   -3.8289  -17.8942   26.5925 C   0  0  0  0  0  0  0  0  0  0  0  0
    1.8783  -11.8721   24.4045 N   0  0  0  0  0  0  0  0  0  0  0  0
    0.9606  -11.2106   23.4855 C   0  0  0  0  0  0  0  0  0  0  0  0
    1.4260  -11.2132   21.9639 C   0  0  0  0  0  0  0  0  0  0  0  0
    2.6514  -11.7543   21.8322 N   0  0  0  0  0  0  0  0  0  0  0  0
    3.0972  -12.0059   23.0711 C   0  0  0  0  0  0  0  0  0  0  0  0
    6.4836  -11.1873   23.4647 H   0  0  0  0  0  0  0  0  0  0  0  0
    6.2679   -9.6184   23.8423 H   0  0  0  0  0  0  0  0  0  0  0  0
    5.2293  -10.2635   22.6111 H   0  0  0  0  0  0  0  0  0  0  0  0
    4.6501  -10.8097   25.8158 H   0  0  0  0  0  0  0  0  0  0  0  0
    4.9568   -8.4936   24.3684 H   0  0  0  0  0  0  0  0  0  0  0  0
    5.5231   -8.9695   25.9283 H   0  0  0  0  0  0  0  0  0  0  0  0
    3.8586   -8.4425   25.5694 H   0  0  0  0  0  0  0  0  0  0  0  0
    4.0206  -13.1591   26.0375 H   0  0  0  0  0  0  0  0  0  0  0  0
    3.7576  -13.3540   24.6281 H   0  0  0  0  0  0  0  0  0  0  0  0
    1.4007  -13.0657   26.7162 H   0  0  0  0  0  0  0  0  0  0  0  0
   -1.3743  -14.8715   26.8755 H   0  0  0  0  0  0  0  0  0  0  0  0
   -1.4831  -17.9305   25.7361 H   0  0  0  0  0  0  0  0  0  0  0  0
   -0.8696  -18.7609   28.0792 H   0  0  0  0  0  0  0  0  0  0  0  0
   -2.2075  -17.8156   28.7786 H   0  0  0  0  0  0  0  0  0  0  0  0
   -2.4716  -20.5735   27.2282 H   0  0  0  0  0  0  0  0  0  0  0  0
   -3.0237  -20.2143   28.8994 H   0  0  0  0  0  0  0  0  0  0  0  0
   -9.2721  -20.7446   28.0448 H   0  0  0  0  0  0  0  0  0  0  0  0
   -9.3729  -22.8648   29.1408 H   0  0  0  0  0  0  0  0  0  0  0  0
   -7.2361  -22.6806   30.2285 H   0  0  0  0  0  0  0  0  0  0  0  0
   -4.1651  -17.9119   25.5537 H   0  0  0  0  0  0  0  0  0  0  0  0
   -4.3439  -17.1611   27.2193 H   0  0  0  0  0  0  0  0  0  0  0  0
    0.4554  -10.3467   23.8975 H   0  0  0  0  0  0  0  0  0  0  0  0
    1.0314  -10.7505   21.0671 H   0  0  0  0  0  0  0  0  0  0  0  0
    3.9788  -12.5892   23.1805 H   0  0  0  0  0  0  0  0  0  0  0  0
  1  2  1  0
  2  3  1  0
  2  4  1  0
  4  5  1  0
  5  6  1  0
  6  7  2  0
  6  8  1  0
  8  9  1  0
  9 10  1  0
 10 11  1  0
 11 12  1  0
 12 13  1  0
 13 14  2  0
 14 15  1  0
 15 16  2  0
 16 17  1  0
 17 18  2  0
 12 19  1  0
  5 20  1  0
 20 21  1  0
 21 22  2  0
 22 23  1  0
 23 24  2  0
 19  9  1  0
 24 20  1  0
 18 13  1  0
  1 25  1  0
  1 26  1  0
  1 27  1  0
  2 28  1  0
  3 29  1  0
  3 30  1  0
  3 31  1  0
  4 32  1  0
  4 33  1  0
  5 34  1  0
  8 35  1  0
  9 36  1  0
 10 37  1  0
 10 38  1  0
 11 39  1  0
 11 40  1  0
 15 41  1  0
 16 42  1  0
 17 43  1  0
 19 44  1  0
 19 45  1  0
 21 46  1  0
 22 47  1  0
 24 48  1  0
M  END
>  <Energy>  (955) 
1125.6499920918609

>  <compound_id>  (955) 
28749

>  <target_id>  (955) 
1

>  <reference_id>  (955) 
54

>  <inspiration_ids>  (955) 
[80, 54]

>  <energy_score>  (955) 
1125.3696602419172

>  <distance_score>  (955) 
11.189625544860013

>  <path>  (955) 
/opt/xchem-fragalysis-2/maxwin/BulkDock/SCRATCH/511021/C28749-P54/C28749-P54.minimised.mol

>  <scratch_subdir>  (955) 
/opt/xchem-fragalysis-2/maxwin/BulkDock/SCRATCH/511021/C28749-P54

>  <fragmenstein_runtime>  (955) 
40.51447796821594

>  <fragmenstein_outcome>  (955) 
too moved

>  <fragmenstein_mode>  (955) 
expansion

>  <fragmenstein_error>  (955) 


$$$$
C28750-P80
     RDKit          3D

 51 53  0  0  0  0  0  0  0  0999 V2000
    5.7662  -13.0095   26.2698 C   0  0  0  0  0  0  0  0  0  0  0  0
    4.6579  -13.2722   27.4631 C   0  0  0  0  0  0  0  0  0  0  0  0
    5.2899  -12.1569   28.4625 C   0  0  0  0  0  0  0  0  0  0  0  0
    2.7691  -13.7746   26.9357 C   0  0  0  0  0  0  0  0  0  0  0  0
    1.1605  -12.7691   26.1191 C   0  0  0  0  0  0  0  0  0  0  0  0
   -0.9698  -13.4884   25.8593 C   0  0  0  0  0  0  0  0  0  0  0  0
   -1.6850  -12.9663   25.1432 O   0  0  0  0  0  0  0  0  0  0  0  0
   -1.9911  -14.9147   26.8988 N   0  0  0  0  0  0  0  0  0  0  0  0
   -4.0004  -15.4543   26.9804 C   0  0  0  0  0  0  0  0  0  0  0  0
   -5.1978  -14.4728   26.6635 C   0  0  0  0  0  0  0  0  0  0  0  0
   -6.5959  -14.7746   27.5763 C   0  0  0  0  0  0  0  0  0  0  0  0
   -7.7203  -15.9857   27.2763 C   0  0  0  0  0  0  0  0  0  0  0  0
   -7.3580  -17.4570   27.9345 N   0  0  0  0  0  0  0  0  0  0  0  0
   -8.5918  -18.9718   28.3481 C   0  0  0  0  0  0  0  0  0  0  0  0
   -9.2130  -20.5033   27.7944 N   0  0  0  0  0  0  0  0  0  0  0  0
  -10.3944  -21.7193   28.2067 C   0  0  0  0  0  0  0  0  0  0  0  0
  -11.2251  -21.9211   29.2248 C   0  0  0  0  0  0  0  0  0  0  0  0
  -10.8241  -20.9050   29.9175 C   0  0  0  0  0  0  0  0  0  0  0  0
   -9.7925  -19.8699   29.3475 N   0  0  0  0  0  0  0  0  0  0  0  0
   -5.3797  -17.0165   27.5230 C   0  0  0  0  0  0  0  0  0  0  0  0
    2.1858  -10.9536   25.7798 N   0  0  0  0  0  0  0  0  0  0  0  0
    2.8101  -11.1724   23.8770 C   0  0  0  0  0  0  0  0  0  0  0  0
    4.3095   -9.8406   23.5632 C   0  0  0  0  0  0  0  0  0  0  0  0
    4.8529   -9.0619   25.4082 N   0  0  0  0  0  0  0  0  0  0  0  0
    3.9891  -10.2009   26.6533 C   0  0  0  0  0  0  0  0  0  0  0  0
    5.8988  -12.0304   25.8296 H   0  0  0  0  0  0  0  0  0  0  0  0
    5.3801  -13.7117   25.5545 H   0  0  0  0  0  0  0  0  0  0  0  0
    6.8103  -13.1935   26.5715 H   0  0  0  0  0  0  0  0  0  0  0  0
    4.7058  -14.2026   27.9502 H   0  0  0  0  0  0  0  0  0  0  0  0
    5.7061  -12.5281   29.3843 H   0  0  0  0  0  0  0  0  0  0  0  0
    6.1256  -11.6004   28.0145 H   0  0  0  0  0  0  0  0  0  0  0  0
    4.6253  -11.4051   28.8303 H   0  0  0  0  0  0  0  0  0  0  0  0
    2.5104  -14.5913   27.6071 H   0  0  0  0  0  0  0  0  0  0  0  0
    3.2755  -14.1256   26.0137 H   0  0  0  0  0  0  0  0  0  0  0  0
    1.6016  -13.0495   25.1518 H   0  0  0  0  0  0  0  0  0  0  0  0
   -1.3690  -15.3070   27.5912 H   0  0  0  0  0  0  0  0  0  0  0  0
   -3.8796  -15.2582   28.0631 H   0  0  0  0  0  0  0  0  0  0  0  0
   -5.4648  -14.5420   25.6045 H   0  0  0  0  0  0  0  0  0  0  0  0
   -4.8795  -13.4470   26.8789 H   0  0  0  0  0  0  0  0  0  0  0  0
   -7.1746  -13.8462   27.4799 H   0  0  0  0  0  0  0  0  0  0  0  0
   -6.2387  -14.8267   28.6041 H   0  0  0  0  0  0  0  0  0  0  0  0
   -8.7505  -15.7103   27.3738 H   0  0  0  0  0  0  0  0  0  0  0  0
   -7.6184  -15.9676   26.1828 H   0  0  0  0  0  0  0  0  0  0  0  0
  -10.5329  -22.5174   27.4668 H   0  0  0  0  0  0  0  0  0  0  0  0
  -11.8904  -22.7208   29.4446 H   0  0  0  0  0  0  0  0  0  0  0  0
  -11.0791  -20.7470   30.9578 H   0  0  0  0  0  0  0  0  0  0  0  0
   -5.1836  -17.7702   26.7515 H   0  0  0  0  0  0  0  0  0  0  0  0
   -4.9336  -17.2923   28.4853 H   0  0  0  0  0  0  0  0  0  0  0  0
    2.8340  -12.2615   23.7260 H   0  0  0  0  0  0  0  0  0  0  0  0
    4.4039   -8.7399   23.1438 H   0  0  0  0  0  0  0  0  0  0  0  0
    4.2643  -10.1694   27.7672 H   0  0  0  0  0  0  0  0  0  0  0  0
  1  2  1  0
  2  3  1  0
  2  4  1  0
  4  5  1  0
  5  6  1  0
  6  7  2  0
  6  8  1  0
  8  9  1  0
  9 10  1  0
 10 11  1  0
 11 12  1  0
 12 13  1  0
 13 14  1  0
 14 15  2  0
 15 16  1  0
 16 17  2  0
 17 18  1  0
 18 19  2  0
 13 20  1  0
  5 21  1  0
 21 22  1  0
 22 23  2  0
 23 24  1  0
 24 25  2  0
 20  9  1  0
 25 21  1  0
 19 14  1  0
  1 26  1  0
  1 27  1  0
  1 28  1  0
  2 29  1  0
  3 30  1  0
  3 31  1  0
  3 32  1  0
  4 33  1  0
  4 34  1  0
  5 35  1  0
  8 36  1  0
  9 37  1  0
 10 38  1  0
 10 39  1  0
 11 40  1  0
 11 41  1  0
 12 42  1  0
 12 43  1  0
 16 44  1  0
 17 45  1  0
 18 46  1  0
 20 47  1  0
 20 48  1  0
 22 49  1  0
 23 50  1  0
 25 51  1  0
M  END
>  <Energy>  (956) 
2487.2222058539146

>  <compound_id>  (956) 
28750

>  <target_id>  (956) 
1

>  <reference_id>  (956) 
80

>  <inspiration_ids>  (956) 
[80, 54]

>  <energy_score>  (956) 
2487.638697648015

>  <distance_score>  (956) 
10.55070576815134

>  <path>  (956) 
/opt/xchem-fragalysis-2/maxwin/BulkDock/SCRATCH/511021/C28750-P80/C28750-P80.minimised.mol

>  <scratch_subdir>  (956) 
/opt/xchem-fragalysis-2/maxwin/BulkDock/SCRATCH/511021/C28750-P80

>  <fragmenstein_runtime>  (956) 
46.885865449905396

>  <fragmenstein_outcome>  (956) 
too moved

>  <fragmenstein_mode>  (956) 
expansion

>  <fragmenstein_error>  (956) 


$$$$
C28750-P54
     RDKit          3D

 51 53  0  0  0  0  0  0  0  0999 V2000
    0.6209  -13.5820   26.6395 C   0  0  0  0  0  0  0  0  0  0  0  0
   -0.6795  -12.3597   25.5767 C   0  0  0  0  0  0  0  0  0  0  0  0
   -2.0190  -12.9478   25.8301 C   0  0  0  0  0  0  0  0  0  0  0  0
    0.3201  -10.9086   24.1694 C   0  0  0  0  0  0  0  0  0  0  0  0
    1.3407  -11.2006   22.5225 C   0  0  0  0  0  0  0  0  0  0  0  0
    0.3836  -12.0903   23.1934 C   0  0  0  0  0  0  0  0  0  0  0  0
    0.9149  -12.4707   24.4322 O   0  0  0  0  0  0  0  0  0  0  0  0
   -1.1940  -12.6836   22.3799 N   0  0  0  0  0  0  0  0  0  0  0  0
   -2.6237  -13.8565   23.0109 C   0  0  0  0  0  0  0  0  0  0  0  0
   -4.2078  -14.0389   22.1983 C   0  0  0  0  0  0  0  0  0  0  0  0
   -5.2279  -15.2204   22.4913 C   0  0  0  0  0  0  0  0  0  0  0  0
   -5.2130  -16.1583   23.7150 C   0  0  0  0  0  0  0  0  0  0  0  0
   -3.8865  -16.4034   24.2242 N   0  0  0  0  0  0  0  0  0  0  0  0
   -3.7817  -17.3965   25.2592 C   0  0  0  0  0  0  0  0  0  0  0  0
   -4.8000  -18.1456   25.6910 N   0  0  0  0  0  0  0  0  0  0  0  0
   -4.5290  -19.1568   26.5918 C   0  0  0  0  0  0  0  0  0  0  0  0
   -3.3626  -19.4549   27.1845 C   0  0  0  0  0  0  0  0  0  0  0  0
   -2.4293  -18.5980   26.7734 C   0  0  0  0  0  0  0  0  0  0  0  0
   -2.6001  -17.6190   25.8351 N   0  0  0  0  0  0  0  0  0  0  0  0
   -2.9496  -15.2297   24.4040 C   0  0  0  0  0  0  0  0  0  0  0  0
    3.2225  -11.7047   22.8903 N   0  0  0  0  0  0  0  0  0  0  0  0
    3.6159  -11.6888   24.3554 C   0  0  0  0  0  0  0  0  0  0  0  0
    4.5023  -10.5584   24.6863 C   0  0  0  0  0  0  0  0  0  0  0  0
    5.3417  -10.2077   23.7277 N   0  0  0  0  0  0  0  0  0  0  0  0
    4.7087  -10.7249   22.7289 C   0  0  0  0  0  0  0  0  0  0  0  0
    0.4849  -14.6742   26.5550 H   0  0  0  0  0  0  0  0  0  0  0  0
    1.5920  -13.5248   26.1569 H   0  0  0  0  0  0  0  0  0  0  0  0
    0.6434  -13.2970   27.6956 H   0  0  0  0  0  0  0  0  0  0  0  0
   -0.8386  -12.2489   26.7149 H   0  0  0  0  0  0  0  0  0  0  0  0
   -2.4255  -12.5724   26.7783 H   0  0  0  0  0  0  0  0  0  0  0  0
   -1.9552  -14.0045   25.9774 H   0  0  0  0  0  0  0  0  0  0  0  0
   -2.5611  -12.6786   24.9923 H   0  0  0  0  0  0  0  0  0  0  0  0
    0.1138   -9.8083   24.1859 H   0  0  0  0  0  0  0  0  0  0  0  0
    1.4285  -10.8828   24.3274 H   0  0  0  0  0  0  0  0  0  0  0  0
    1.3105  -10.7379   21.5420 H   0  0  0  0  0  0  0  0  0  0  0  0
   -1.2546  -12.2952   21.4774 H   0  0  0  0  0  0  0  0  0  0  0  0
   -2.8628  -12.8847   23.4158 H   0  0  0  0  0  0  0  0  0  0  0  0
   -4.7771  -13.1132   22.3643 H   0  0  0  0  0  0  0  0  0  0  0  0
   -4.0481  -14.0758   21.1142 H   0  0  0  0  0  0  0  0  0  0  0  0
   -5.1663  -15.8779   21.6095 H   0  0  0  0  0  0  0  0  0  0  0  0
   -6.2401  -14.7993   22.4120 H   0  0  0  0  0  0  0  0  0  0  0  0
   -5.6420  -17.1013   23.3608 H   0  0  0  0  0  0  0  0  0  0  0  0
   -5.9051  -15.8101   24.4866 H   0  0  0  0  0  0  0  0  0  0  0  0
   -5.3223  -19.8163   26.9068 H   0  0  0  0  0  0  0  0  0  0  0  0
   -3.2107  -20.2354   27.9073 H   0  0  0  0  0  0  0  0  0  0  0  0
   -1.4356  -18.6557   27.2098 H   0  0  0  0  0  0  0  0  0  0  0  0
   -3.3435  -14.7892   25.3028 H   0  0  0  0  0  0  0  0  0  0  0  0
   -2.0234  -15.6749   24.7962 H   0  0  0  0  0  0  0  0  0  0  0  0
    3.0674  -12.2683   25.0588 H   0  0  0  0  0  0  0  0  0  0  0  0
    4.6040  -10.0218   25.6140 H   0  0  0  0  0  0  0  0  0  0  0  0
    4.9028  -10.1755   21.8073 H   0  0  0  0  0  0  0  0  0  0  0  0
  1  2  1  0
  2  3  1  0
  2  4  1  0
  4  5  1  0
  5  6  1  0
  6  7  2  0
  6  8  1  0
  8  9  1  0
  9 10  1  0
 10 11  1  0
 11 12  1  0
 12 13  1  0
 13 14  1  0
 14 15  2  0
 15 16  1  0
 16 17  2  0
 17 18  1  0
 18 19  2  0
 13 20  1  0
  5 21  1  0
 21 22  1  0
 22 23  2  0
 23 24  1  0
 24 25  2  0
 20  9  1  0
 25 21  1  0
 19 14  1  0
  1 26  1  0
  1 27  1  0
  1 28  1  0
  2 29  1  0
  3 30  1  0
  3 31  1  0
  3 32  1  0
  4 33  1  0
  4 34  1  0
  5 35  1  0
  8 36  1  0
  9 37  1  0
 10 38  1  0
 10 39  1  0
 11 40  1  0
 11 41  1  0
 12 42  1  0
 12 43  1  0
 16 44  1  0
 17 45  1  0
 18 46  1  0
 20 47  1  0
 20 48  1  0
 22 49  1  0
 23 50  1  0
 25 51  1  0
M  END
>  <Energy>  (957) 
1073.7316741044615

>  <compound_id>  (957) 
28750

>  <target_id>  (957) 
1

>  <reference_id>  (957) 
54

>  <inspiration_ids>  (957) 
[80, 54]

>  <energy_score>  (957) 
1074.148165898556

>  <distance_score>  (957) 
12.861184062346672

>  <path>  (957) 
/opt/xchem-fragalysis-2/maxwin/BulkDock/SCRATCH/511021/C28750-P54/C28750-P54.minimised.mol

>  <scratch_subdir>  (957) 
/opt/xchem-fragalysis-2/maxwin/BulkDock/SCRATCH/511021/C28750-P54

>  <fragmenstein_runtime>  (957) 
23.962822198867798

>  <fragmenstein_outcome>  (957) 
too moved

>  <fragmenstein_mode>  (957) 
expansion

>  <fragmenstein_error>  (957) 


$$$$
C28751-P80
     RDKit          3D

 43 45  0  0  0  0  0  0  0  0999 V2000
   -1.6870   -9.0943   20.0930 C   0  0  0  0  0  0  0  0  0  0  0  0
   -1.4687  -10.5064   20.6505 C   0  0  0  0  0  0  0  0  0  0  0  0
   -2.8827  -11.0282   20.5626 C   0  0  0  0  0  0  0  0  0  0  0  0
   -0.6758  -10.5427   22.1179 C   0  0  0  0  0  0  0  0  0  0  0  0
    0.6367  -11.1003   23.5633 C   0  0  0  0  0  0  0  0  0  0  0  0
    0.7326  -11.8293   25.7536 C   0  0  0  0  0  0  0  0  0  0  0  0
    1.3438  -11.3690   26.7137 O   0  0  0  0  0  0  0  0  0  0  0  0
   -0.5153  -13.3565   25.9982 N   0  0  0  0  0  0  0  0  0  0  0  0
   -1.0043  -14.5906   27.6921 C   0  0  0  0  0  0  0  0  0  0  0  0
   -2.3308  -14.7073   29.2253 C   0  0  0  0  0  0  0  0  0  0  0  0
   -2.7885  -15.9747   29.6483 N   0  0  0  0  0  0  0  0  0  0  0  0
   -3.6169  -16.2284   30.6934 C   0  0  0  0  0  0  0  0  0  0  0  0
   -4.0788  -15.2480   31.5023 C   0  0  0  0  0  0  0  0  0  0  0  0
   -3.6219  -14.0076   31.1538 C   0  0  0  0  0  0  0  0  0  0  0  0
   -2.8040  -13.7310   30.0871 N   0  0  0  0  0  0  0  0  0  0  0  0
   -1.5555  -16.4302   27.7314 C   0  0  0  0  0  0  0  0  0  0  0  0
   -0.4698  -16.0854   28.7482 C   0  0  0  0  0  0  0  0  0  0  0  0
    0.2064   -9.1758   22.9480 N   0  0  0  0  0  0  0  0  0  0  0  0
    0.8220   -8.5212   21.7703 C   0  0  0  0  0  0  0  0  0  0  0  0
    1.1884   -7.2288   22.0749 C   0  0  0  0  0  0  0  0  0  0  0  0
    0.9867   -6.9046   23.3520 N   0  0  0  0  0  0  0  0  0  0  0  0
    0.2514   -7.8852   23.7997 C   0  0  0  0  0  0  0  0  0  0  0  0
   -0.7746   -8.5569   19.8603 H   0  0  0  0  0  0  0  0  0  0  0  0
   -2.2724   -8.5160   20.8140 H   0  0  0  0  0  0  0  0  0  0  0  0
   -2.2452   -9.1042   19.1480 H   0  0  0  0  0  0  0  0  0  0  0  0
   -1.0974  -11.2735   19.9861 H   0  0  0  0  0  0  0  0  0  0  0  0
   -3.3201  -10.8724   19.5738 H   0  0  0  0  0  0  0  0  0  0  0  0
   -3.4925  -10.5475   21.3101 H   0  0  0  0  0  0  0  0  0  0  0  0
   -2.8455  -12.0994   20.6411 H   0  0  0  0  0  0  0  0  0  0  0  0
   -1.0220  -11.5264   21.9799 H   0  0  0  0  0  0  0  0  0  0  0  0
   -1.4556   -9.8334   22.5040 H   0  0  0  0  0  0  0  0  0  0  0  0
    1.3887  -11.5478   22.9099 H   0  0  0  0  0  0  0  0  0  0  0  0
   -0.9862  -13.5434   25.1211 H   0  0  0  0  0  0  0  0  0  0  0  0
   -3.8945  -17.2675   30.8276 H   0  0  0  0  0  0  0  0  0  0  0  0
   -4.7405  -15.4246   32.3349 H   0  0  0  0  0  0  0  0  0  0  0  0
   -3.9111  -13.1281   31.7223 H   0  0  0  0  0  0  0  0  0  0  0  0
   -2.6087  -16.6752   27.8206 H   0  0  0  0  0  0  0  0  0  0  0  0
   -1.2384  -17.3696   27.2435 H   0  0  0  0  0  0  0  0  0  0  0  0
    0.4902  -16.6254   28.6930 H   0  0  0  0  0  0  0  0  0  0  0  0
   -0.6139  -16.0649   29.8322 H   0  0  0  0  0  0  0  0  0  0  0  0
    0.9836   -9.1136   20.8964 H   0  0  0  0  0  0  0  0  0  0  0  0
    1.5922   -6.4782   21.4075 H   0  0  0  0  0  0  0  0  0  0  0  0
   -0.2357   -7.8276   24.7658 H   0  0  0  0  0  0  0  0  0  0  0  0
  1  2  1  0
  2  3  1  0
  2  4  1  0
  4  5  1  0
  5  6  1  0
  6  7  2  0
  6  8  1  0
  8  9  1  0
  9 10  1  0
 10 11  2  0
 11 12  1  0
 12 13  2  0
 13 14  1  0
 14 15  2  0
  9 16  1  0
 16 17  1  0
  5 18  1  0
 18 19  1  0
 19 20  2  0
 20 21  1  0
 21 22  2  0
 17  9  1  0
 22 18  1  0
 15 10  1  0
  1 23  1  0
  1 24  1  0
  1 25  1  0
  2 26  1  0
  3 27  1  0
  3 28  1  0
  3 29  1  0
  4 30  1  0
  4 31  1  0
  5 32  1  0
  8 33  1  0
 12 34  1  0
 13 35  1  0
 14 36  1  0
 16 37  1  0
 16 38  1  0
 17 39  1  0
 17 40  1  0
 19 41  1  0
 20 42  1  0
 22 43  1  0
M  END
>  <Energy>  (958) 
1160.8256346726885

>  <compound_id>  (958) 
28751

>  <target_id>  (958) 
1

>  <reference_id>  (958) 
80

>  <inspiration_ids>  (958) 
[80, 54]

>  <energy_score>  (958) 
1092.8961326715485

>  <distance_score>  (958) 
13.027318827726846

>  <path>  (958) 
/opt/xchem-fragalysis-2/maxwin/BulkDock/SCRATCH/511021/C28751-P80/C28751-P80.minimised.mol

>  <scratch_subdir>  (958) 
/opt/xchem-fragalysis-2/maxwin/BulkDock/SCRATCH/511021/C28751-P80

>  <fragmenstein_runtime>  (958) 
30.879051208496094

>  <fragmenstein_outcome>  (958) 
too moved

>  <fragmenstein_mode>  (958) 
expansion

>  <fragmenstein_error>  (958) 


$$$$
C28751-P54
     RDKit          3D

 43 45  0  0  0  0  0  0  0  0999 V2000
    5.1714  -10.3021   17.2737 C   0  0  0  0  0  0  0  0  0  0  0  0
    4.0970  -11.4068   17.5107 C   0  0  0  0  0  0  0  0  0  0  0  0
    3.9536  -12.1938   16.1726 C   0  0  0  0  0  0  0  0  0  0  0  0
    2.7393  -11.3426   18.7383 C   0  0  0  0  0  0  0  0  0  0  0  0
    1.8520  -10.6544   20.3136 C   0  0  0  0  0  0  0  0  0  0  0  0
    0.7667  -11.5643   21.8741 C   0  0  0  0  0  0  0  0  0  0  0  0
    1.1061  -11.2140   22.9948 O   0  0  0  0  0  0  0  0  0  0  0  0
   -0.7997  -12.7485   21.7057 N   0  0  0  0  0  0  0  0  0  0  0  0
   -2.1059  -13.5376   23.0843 C   0  0  0  0  0  0  0  0  0  0  0  0
   -2.6812  -15.2517   24.3479 C   0  0  0  0  0  0  0  0  0  0  0  0
   -3.6757  -15.2202   25.8247 N   0  0  0  0  0  0  0  0  0  0  0  0
   -4.9465  -16.4657   26.3663 C   0  0  0  0  0  0  0  0  0  0  0  0
   -5.2788  -17.9286   25.4527 C   0  0  0  0  0  0  0  0  0  0  0  0
   -3.9431  -18.2344   24.3418 C   0  0  0  0  0  0  0  0  0  0  0  0
   -2.5436  -16.9557   24.2761 N   0  0  0  0  0  0  0  0  0  0  0  0
   -2.7705  -12.4701   23.6339 C   0  0  0  0  0  0  0  0  0  0  0  0
   -2.2519  -12.8142   24.8989 C   0  0  0  0  0  0  0  0  0  0  0  0
    2.4182   -8.8371   19.7571 N   0  0  0  0  0  0  0  0  0  0  0  0
    1.7545   -7.1596   19.2005 C   0  0  0  0  0  0  0  0  0  0  0  0
    2.9154   -6.2386   19.0690 C   0  0  0  0  0  0  0  0  0  0  0  0
    4.1958   -6.8913   19.4444 N   0  0  0  0  0  0  0  0  0  0  0  0
    4.0873   -8.2016   19.7600 C   0  0  0  0  0  0  0  0  0  0  0  0
    5.3403   -9.6385   18.1117 H   0  0  0  0  0  0  0  0  0  0  0  0
    6.1399  -10.7861   17.0829 H   0  0  0  0  0  0  0  0  0  0  0  0
    4.9920   -9.6952   16.3841 H   0  0  0  0  0  0  0  0  0  0  0  0
    4.7252  -12.0718   18.0298 H   0  0  0  0  0  0  0  0  0  0  0  0
    4.0526  -11.5666   15.2824 H   0  0  0  0  0  0  0  0  0  0  0  0
    3.0350  -12.7631   16.0847 H   0  0  0  0  0  0  0  0  0  0  0  0
    4.7763  -12.9163   16.0810 H   0  0  0  0  0  0  0  0  0  0  0  0
    3.3388  -10.5041   18.9651 H   0  0  0  0  0  0  0  0  0  0  0  0
    2.5760  -12.3763   18.8977 H   0  0  0  0  0  0  0  0  0  0  0  0
    2.7083  -10.9242   20.9124 H   0  0  0  0  0  0  0  0  0  0  0  0
   -1.0016  -12.8795   20.7312 H   0  0  0  0  0  0  0  0  0  0  0  0
   -5.6770  -16.1985   27.1533 H   0  0  0  0  0  0  0  0  0  0  0  0
   -6.1102  -18.3296   25.9649 H   0  0  0  0  0  0  0  0  0  0  0  0
   -3.7156  -19.1894   23.8550 H   0  0  0  0  0  0  0  0  0  0  0  0
   -3.4121  -13.2939   23.2519 H   0  0  0  0  0  0  0  0  0  0  0  0
   -2.7613  -11.4783   23.2515 H   0  0  0  0  0  0  0  0  0  0  0  0
   -2.5527  -13.4881   25.6950 H   0  0  0  0  0  0  0  0  0  0  0  0
   -1.4332  -12.5301   25.5449 H   0  0  0  0  0  0  0  0  0  0  0  0
    0.7352   -7.1609   18.8027 H   0  0  0  0  0  0  0  0  0  0  0  0
    2.9128   -5.2240   18.6914 H   0  0  0  0  0  0  0  0  0  0  0  0
    4.8455   -8.9038   20.0529 H   0  0  0  0  0  0  0  0  0  0  0  0
  1  2  1  0
  2  3  1  0
  2  4  1  0
  4  5  1  0
  5  6  1  0
  6  7  2  0
  6  8  1  0
  8  9  1  0
  9 10  1  0
 10 11  2  0
 11 12  1  0
 12 13  2  0
 13 14  1  0
 14 15  2  0
  9 16  1  0
 16 17  1  0
  5 18  1  0
 18 19  1  0
 19 20  2  0
 20 21  1  0
 21 22  2  0
 17  9  1  0
 22 18  1  0
 15 10  1  0
  1 23  1  0
  1 24  1  0
  1 25  1  0
  2 26  1  0
  3 27  1  0
  3 28  1  0
  3 29  1  0
  4 30  1  0
  4 31  1  0
  5 32  1  0
  8 33  1  0
 12 34  1  0
 13 35  1  0
 14 36  1  0
 16 37  1  0
 16 38  1  0
 17 39  1  0
 17 40  1  0
 19 41  1  0
 20 42  1  0
 22 43  1  0
M  END
>  <Energy>  (959) 
1477.6423583639328

>  <compound_id>  (959) 
28751

>  <target_id>  (959) 
1

>  <reference_id>  (959) 
54

>  <inspiration_ids>  (959) 
[80, 54]

>  <energy_score>  (959) 
1409.712856362826

>  <distance_score>  (959) 
12.299946228863355

>  <path>  (959) 
/opt/xchem-fragalysis-2/maxwin/BulkDock/SCRATCH/511021/C28751-P54/C28751-P54.minimised.mol

>  <scratch_subdir>  (959) 
/opt/xchem-fragalysis-2/maxwin/BulkDock/SCRATCH/511021/C28751-P54

>  <fragmenstein_runtime>  (959) 
36.228256940841675

>  <fragmenstein_outcome>  (959) 
too moved

>  <fragmenstein_mode>  (959) 
expansion

>  <fragmenstein_error>  (959) 


$$$$
C28752-P80
     RDKit          3D

 47 49  0  0  0  0  0  0  0  0999 V2000
   -7.0748  -15.5189   15.9036 C   0  0  0  0  0  0  0  0  0  0  0  0
   -6.5303  -14.1877   16.4243 C   0  0  0  0  0  0  0  0  0  0  0  0
   -5.5552  -13.5767   15.4205 C   0  0  0  0  0  0  0  0  0  0  0  0
   -5.9424  -14.3107   17.8477 C   0  0  0  0  0  0  0  0  0  0  0  0
   -4.6529  -15.1640   17.9820 C   0  0  0  0  0  0  0  0  0  0  0  0
   -4.7450  -16.1629   19.2398 C   0  0  0  0  0  0  0  0  0  0  0  0
   -3.8540  -16.0819   20.0387 O   0  0  0  0  0  0  0  0  0  0  0  0
   -5.9417  -17.0428   19.2159 N   0  0  0  0  0  0  0  0  0  0  0  0
   -6.3619  -18.1857   20.1416 C   0  0  0  0  0  0  0  0  0  0  0  0
   -7.8140  -18.7724   20.0047 C   0  0  0  0  0  0  0  0  0  0  0  0
   -7.9390  -20.1197   19.9390 N   0  0  0  0  0  0  0  0  0  0  0  0
   -9.1068  -20.6826   20.3225 C   0  0  0  0  0  0  0  0  0  0  0  0
  -10.1881  -19.9511   20.7259 C   0  0  0  0  0  0  0  0  0  0  0  0
  -10.0097  -18.5902   20.6806 C   0  0  0  0  0  0  0  0  0  0  0  0
   -8.8490  -17.9734   20.3430 N   0  0  0  0  0  0  0  0  0  0  0  0
   -6.2787  -17.7990   21.6202 C   0  0  0  0  0  0  0  0  0  0  0  0
   -6.1480  -19.1526   22.2997 C   0  0  0  0  0  0  0  0  0  0  0  0
   -5.3354  -19.9631   21.4517 O   0  0  0  0  0  0  0  0  0  0  0  0
   -5.3232  -19.3378   20.1504 C   0  0  0  0  0  0  0  0  0  0  0  0
   -3.4000  -14.2930   17.8828 N   0  0  0  0  0  0  0  0  0  0  0  0
   -2.3530  -14.4780   16.9925 C   0  0  0  0  0  0  0  0  0  0  0  0
   -1.6115  -13.3146   17.0026 C   0  0  0  0  0  0  0  0  0  0  0  0
   -2.1442  -12.4201   17.8887 N   0  0  0  0  0  0  0  0  0  0  0  0
   -3.1816  -13.0386   18.4235 C   0  0  0  0  0  0  0  0  0  0  0  0
   -7.5846  -15.3756   14.9446 H   0  0  0  0  0  0  0  0  0  0  0  0
   -7.8024  -15.9421   16.6039 H   0  0  0  0  0  0  0  0  0  0  0  0
   -6.2812  -16.2559   15.7487 H   0  0  0  0  0  0  0  0  0  0  0  0
   -7.3855  -13.5023   16.4997 H   0  0  0  0  0  0  0  0  0  0  0  0
   -4.7274  -14.2544   15.1924 H   0  0  0  0  0  0  0  0  0  0  0  0
   -6.0666  -13.3581   14.4766 H   0  0  0  0  0  0  0  0  0  0  0  0
   -5.1422  -12.6358   15.7980 H   0  0  0  0  0  0  0  0  0  0  0  0
   -5.7788  -13.2963   18.2287 H   0  0  0  0  0  0  0  0  0  0  0  0
   -6.7343  -14.7111   18.4924 H   0  0  0  0  0  0  0  0  0  0  0  0
   -4.5518  -15.8354   17.1197 H   0  0  0  0  0  0  0  0  0  0  0  0
   -6.4419  -16.9011   18.3461 H   0  0  0  0  0  0  0  0  0  0  0  0
   -9.1356  -21.7697   20.2985 H   0  0  0  0  0  0  0  0  0  0  0  0
  -11.1187  -20.4085   21.0309 H   0  0  0  0  0  0  0  0  0  0  0  0
  -10.8273  -17.9210   20.9291 H   0  0  0  0  0  0  0  0  0  0  0  0
   -5.3754  -17.2066   21.7565 H   0  0  0  0  0  0  0  0  0  0  0  0
   -7.1086  -17.2047   22.0144 H   0  0  0  0  0  0  0  0  0  0  0  0
   -7.1122  -19.6462   22.4450 H   0  0  0  0  0  0  0  0  0  0  0  0
   -5.6581  -19.0943   23.2578 H   0  0  0  0  0  0  0  0  0  0  0  0
   -4.3075  -18.9520   20.0032 H   0  0  0  0  0  0  0  0  0  0  0  0
   -5.4889  -20.0935   19.3755 H   0  0  0  0  0  0  0  0  0  0  0  0
   -2.2501  -15.3876   16.4182 H   0  0  0  0  0  0  0  0  0  0  0  0
   -0.7288  -13.0810   16.4216 H   0  0  0  0  0  0  0  0  0  0  0  0
   -3.8256  -12.6163   19.1840 H   0  0  0  0  0  0  0  0  0  0  0  0
  1  2  1  0
  2  3  1  0
  2  4  1  0
  4  5  1  0
  5  6  1  0
  6  7  2  0
  6  8  1  0
  8  9  1  0
  9 10  1  0
 10 11  2  0
 11 12  1  0
 12 13  2  0
 13 14  1  0
 14 15  2  0
  9 16  1  0
 16 17  1  0
 17 18  1  0
 18 19  1  0
  5 20  1  0
 20 21  1  0
 21 22  2  0
 22 23  1  0
 23 24  2  0
 19  9  1  0
 24 20  1  0
 15 10  1  0
  1 25  1  0
  1 26  1  0
  1 27  1  0
  2 28  1  0
  3 29  1  0
  3 30  1  0
  3 31  1  0
  4 32  1  0
  4 33  1  0
  5 34  1  0
  8 35  1  0
 12 36  1  0
 13 37  1  0
 14 38  1  0
 16 39  1  0
 16 40  1  0
 17 41  1  0
 17 42  1  0
 19 43  1  0
 19 44  1  0
 21 45  1  0
 22 46  1  0
 24 47  1  0
M  END
>  <Energy>  (960) 
79.868589853863597

>  <compound_id>  (960) 
28752

>  <target_id>  (960) 
1

>  <reference_id>  (960) 
80

>  <inspiration_ids>  (960) 
[80, 54]

>  <energy_score>  (960) 
-18.020047344975524

>  <distance_score>  (960) 
14.160254723010238

>  <path>  (960) 
/opt/xchem-fragalysis-2/maxwin/BulkDock/SCRATCH/511021/C28752-P80/C28752-P80.minimised.mol

>  <scratch_subdir>  (960) 
/opt/xchem-fragalysis-2/maxwin/BulkDock/SCRATCH/511021/C28752-P80

>  <fragmenstein_runtime>  (960) 
67.95884418487549

>  <fragmenstein_outcome>  (960) 
too moved

>  <fragmenstein_mode>  (960) 
expansion

>  <fragmenstein_error>  (960) 


$$$$
C28752-P54
     RDKit          3D

 47 49  0  0  0  0  0  0  0  0999 V2000
    4.2452   -8.0403   25.2499 C   0  0  0  0  0  0  0  0  0  0  0  0
    4.8186   -9.6281   24.9236 C   0  0  0  0  0  0  0  0  0  0  0  0
    6.3894   -9.0125   25.2434 C   0  0  0  0  0  0  0  0  0  0  0  0
    3.8827  -11.4077   24.5663 C   0  0  0  0  0  0  0  0  0  0  0  0
    4.2396  -12.9695   23.3977 C   0  0  0  0  0  0  0  0  0  0  0  0
    3.0343  -14.5405   24.3423 C   0  0  0  0  0  0  0  0  0  0  0  0
    2.9171  -14.3051   25.5544 O   0  0  0  0  0  0  0  0  0  0  0  0
    2.0248  -15.8813   23.3847 N   0  0  0  0  0  0  0  0  0  0  0  0
    0.3247  -17.0667   23.9879 C   0  0  0  0  0  0  0  0  0  0  0  0
   -1.8721  -17.1093   23.9335 C   0  0  0  0  0  0  0  0  0  0  0  0
   -3.0999  -17.9118   24.5627 N   0  0  0  0  0  0  0  0  0  0  0  0
   -4.0209  -19.0096   23.8708 C   0  0  0  0  0  0  0  0  0  0  0  0
   -3.9487  -19.6154   22.6050 C   0  0  0  0  0  0  0  0  0  0  0  0
   -2.8385  -19.1869   21.8746 C   0  0  0  0  0  0  0  0  0  0  0  0
   -1.7501  -18.1091   22.3657 N   0  0  0  0  0  0  0  0  0  0  0  0
    0.2208  -18.4334   22.4588 C   0  0  0  0  0  0  0  0  0  0  0  0
   -0.8885  -19.9244   23.0622 C   0  0  0  0  0  0  0  0  0  0  0  0
   -2.0310  -19.2131   24.3959 O   0  0  0  0  0  0  0  0  0  0  0  0
   -1.2654  -17.4916   25.3589 C   0  0  0  0  0  0  0  0  0  0  0  0
    5.1543  -11.1956   23.0296 N   0  0  0  0  0  0  0  0  0  0  0  0
    6.7148  -11.0070   23.2954 C   0  0  0  0  0  0  0  0  0  0  0  0
    7.3791  -10.0565   22.5745 C   0  0  0  0  0  0  0  0  0  0  0  0
    6.5047   -9.4404   21.8276 N   0  0  0  0  0  0  0  0  0  0  0  0
    5.4006  -10.1195   22.0261 C   0  0  0  0  0  0  0  0  0  0  0  0
    4.3743   -7.4286   24.3430 H   0  0  0  0  0  0  0  0  0  0  0  0
    4.8748   -7.5296   25.9876 H   0  0  0  0  0  0  0  0  0  0  0  0
    3.2035   -7.8971   25.5716 H   0  0  0  0  0  0  0  0  0  0  0  0
    4.9313   -9.3366   23.9033 H   0  0  0  0  0  0  0  0  0  0  0  0
    6.4670   -8.7503   26.3110 H   0  0  0  0  0  0  0  0  0  0  0  0
    7.2840   -9.5925   25.0169 H   0  0  0  0  0  0  0  0  0  0  0  0
    6.5444   -8.0843   24.6713 H   0  0  0  0  0  0  0  0  0  0  0  0
    3.9539  -11.9943   25.4670 H   0  0  0  0  0  0  0  0  0  0  0  0
    2.7832  -11.4326   24.5493 H   0  0  0  0  0  0  0  0  0  0  0  0
    3.6912  -12.7390   22.4771 H   0  0  0  0  0  0  0  0  0  0  0  0
    2.3614  -15.9429   22.4388 H   0  0  0  0  0  0  0  0  0  0  0  0
   -4.5823  -19.4647   24.6676 H   0  0  0  0  0  0  0  0  0  0  0  0
   -4.6089  -20.4021   22.2823 H   0  0  0  0  0  0  0  0  0  0  0  0
   -2.5967  -19.5434   20.8732 H   0  0  0  0  0  0  0  0  0  0  0  0
   -0.1912  -18.0169   21.5105 H   0  0  0  0  0  0  0  0  0  0  0  0
    1.0851  -18.7936   21.8677 H   0  0  0  0  0  0  0  0  0  0  0  0
   -1.4137  -20.5316   22.3243 H   0  0  0  0  0  0  0  0  0  0  0  0
   -0.3664  -20.7447   23.5926 H   0  0  0  0  0  0  0  0  0  0  0  0
   -1.9425  -16.6120   25.6241 H   0  0  0  0  0  0  0  0  0  0  0  0
   -0.9977  -17.9085   26.3581 H   0  0  0  0  0  0  0  0  0  0  0  0
    7.1350  -11.5691   24.0721 H   0  0  0  0  0  0  0  0  0  0  0  0
    8.4222   -9.7792   22.6362 H   0  0  0  0  0  0  0  0  0  0  0  0
    4.6823   -9.8747   21.3194 H   0  0  0  0  0  0  0  0  0  0  0  0
  1  2  1  0
  2  3  1  0
  2  4  1  0
  4  5  1  0
  5  6  1  0
  6  7  2  0
  6  8  1  0
  8  9  1  0
  9 10  1  0
 10 11  2  0
 11 12  1  0
 12 13  2  0
 13 14  1  0
 14 15  2  0
  9 16  1  0
 16 17  1  0
 17 18  1  0
 18 19  1  0
  5 20  1  0
 20 21  1  0
 21 22  2  0
 22 23  1  0
 23 24  2  0
 19  9  1  0
 24 20  1  0
 15 10  1  0
  1 25  1  0
  1 26  1  0
  1 27  1  0
  2 28  1  0
  3 29  1  0
  3 30  1  0
  3 31  1  0
  4 32  1  0
  4 33  1  0
  5 34  1  0
  8 35  1  0
 12 36  1  0
 13 37  1  0
 14 38  1  0
 16 39  1  0
 16 40  1  0
 17 41  1  0
 17 42  1  0
 19 43  1  0
 19 44  1  0
 21 45  1  0
 22 46  1  0
 24 47  1  0
M  END
>  <Energy>  (961) 
2041.5139907308255

>  <compound_id>  (961) 
28752

>  <target_id>  (961) 
1

>  <reference_id>  (961) 
54

>  <inspiration_ids>  (961) 
[80, 54]

>  <energy_score>  (961) 
1943.6253535320106

>  <distance_score>  (961) 
12.502356636310832

>  <path>  (961) 
/opt/xchem-fragalysis-2/maxwin/BulkDock/SCRATCH/511021/C28752-P54/C28752-P54.minimised.mol

>  <scratch_subdir>  (961) 
/opt/xchem-fragalysis-2/maxwin/BulkDock/SCRATCH/511021/C28752-P54

>  <fragmenstein_runtime>  (961) 
35.87572622299194

>  <fragmenstein_outcome>  (961) 
too moved

>  <fragmenstein_mode>  (961) 
expansion

>  <fragmenstein_error>  (961) 


$$$$
C28753-P80
     RDKit          3D

 50 51  0  0  0  0  0  0  0  0999 V2000
   -2.4563  -21.7493   26.9847 C   0  0  0  0  0  0  0  0  0  0  0  0
   -1.4813  -21.5296   28.1552 C   0  0  0  0  0  0  0  0  0  0  0  0
   -1.3187  -22.9395   28.8989 C   0  0  0  0  0  0  0  0  0  0  0  0
   -2.1944  -23.5404   30.2099 C   0  0  0  0  0  0  0  0  0  0  0  0
   -1.6210  -24.4076   30.8189 O   0  0  0  0  0  0  0  0  0  0  0  0
   -3.4595  -22.8700   30.4809 N   0  0  0  0  0  0  0  0  0  0  0  0
   -4.5991  -22.9870   31.8995 C   0  0  0  0  0  0  0  0  0  0  0  0
   -5.7894  -24.4199   31.9953 C   0  0  0  0  0  0  0  0  0  0  0  0
   -7.4331  -25.0766   32.3141 N   0  0  0  0  0  0  0  0  0  0  0  0
   -8.7127  -24.8587   31.8298 C   0  0  0  0  0  0  0  0  0  0  0  0
   -9.5999  -24.2572   32.6324 N   0  0  0  0  0  0  0  0  0  0  0  0
  -10.8281  -24.0140   32.1385 C   0  0  0  0  0  0  0  0  0  0  0  0
  -11.1903  -24.3131   30.8528 C   0  0  0  0  0  0  0  0  0  0  0  0
  -10.2535  -24.9755   30.1161 C   0  0  0  0  0  0  0  0  0  0  0  0
   -9.0217  -25.2347   30.5779 N   0  0  0  0  0  0  0  0  0  0  0  0
   -5.8030  -21.3059   32.5067 C   0  0  0  0  0  0  0  0  0  0  0  0
   -7.5245  -21.4608   33.2133 C   0  0  0  0  0  0  0  0  0  0  0  0
   -5.1335  -20.2009   31.8845 C   0  0  0  0  0  0  0  0  0  0  0  0
   -6.2153  -19.8358   33.3906 C   0  0  0  0  0  0  0  0  0  0  0  0
   -0.3029  -20.7096   27.6353 N   0  0  0  0  0  0  0  0  0  0  0  0
    0.0809  -19.4552   28.1005 C   0  0  0  0  0  0  0  0  0  0  0  0
    0.9641  -18.9247   27.1809 C   0  0  0  0  0  0  0  0  0  0  0  0
    1.1532  -19.8003   26.1525 N   0  0  0  0  0  0  0  0  0  0  0  0
    0.3880  -20.8402   26.4392 C   0  0  0  0  0  0  0  0  0  0  0  0
   -2.0341  -22.4336   26.2399 H   0  0  0  0  0  0  0  0  0  0  0  0
   -2.6851  -20.8102   26.4692 H   0  0  0  0  0  0  0  0  0  0  0  0
   -3.3957  -22.1919   27.3325 H   0  0  0  0  0  0  0  0  0  0  0  0
   -1.9241  -20.8565   28.8895 H   0  0  0  0  0  0  0  0  0  0  0  0
   -1.3477  -23.7444   28.1527 H   0  0  0  0  0  0  0  0  0  0  0  0
   -0.2910  -22.9271   29.2915 H   0  0  0  0  0  0  0  0  0  0  0  0
   -3.5897  -22.1469   29.8149 H   0  0  0  0  0  0  0  0  0  0  0  0
   -3.6713  -23.4239   32.3369 H   0  0  0  0  0  0  0  0  0  0  0  0
   -5.1923  -24.9785   32.6615 H   0  0  0  0  0  0  0  0  0  0  0  0
   -6.4276  -23.7182   32.3923 H   0  0  0  0  0  0  0  0  0  0  0  0
   -7.3243  -26.0873   32.2071 H   0  0  0  0  0  0  0  0  0  0  0  0
  -11.5231  -23.5376   32.8239 H   0  0  0  0  0  0  0  0  0  0  0  0
  -12.1466  -24.0386   30.4535 H   0  0  0  0  0  0  0  0  0  0  0  0
  -10.4465  -25.2939   29.0986 H   0  0  0  0  0  0  0  0  0  0  0  0
   -7.9089  -22.4817   33.4077 H   0  0  0  0  0  0  0  0  0  0  0  0
   -8.3442  -20.8668   32.8036 H   0  0  0  0  0  0  0  0  0  0  0  0
   -7.6747  -21.0100   34.1502 H   0  0  0  0  0  0  0  0  0  0  0  0
   -4.4301  -19.6322   32.4480 H   0  0  0  0  0  0  0  0  0  0  0  0
   -4.5619  -20.6262   31.2052 H   0  0  0  0  0  0  0  0  0  0  0  0
   -5.7521  -19.6590   31.2612 H   0  0  0  0  0  0  0  0  0  0  0  0
   -7.1784  -19.4926   33.8536 H   0  0  0  0  0  0  0  0  0  0  0  0
   -6.0663  -18.8141   32.8999 H   0  0  0  0  0  0  0  0  0  0  0  0
   -5.6734  -19.8876   34.2233 H   0  0  0  0  0  0  0  0  0  0  0  0
   -0.3135  -19.0532   29.0223 H   0  0  0  0  0  0  0  0  0  0  0  0
    1.4612  -17.9641   27.2114 H   0  0  0  0  0  0  0  0  0  0  0  0
    0.2765  -21.7154   25.8125 H   0  0  0  0  0  0  0  0  0  0  0  0
  1  2  1  0
  2  3  1  0
  3  4  1  0
  4  5  2  0
  4  6  1  0
  6  7  1  0
  7  8  1  0
  8  9  1  0
  9 10  1  0
 10 11  2  0
 11 12  1  0
 12 13  2  0
 13 14  1  0
 14 15  2  0
  7 16  1  0
 16 17  1  0
 16 18  1  0
 16 19  1  0
  2 20  1  0
 20 21  1  0
 21 22  2  0
 22 23  1  0
 23 24  2  0
 15 10  1  0
 24 20  1  0
  1 25  1  0
  1 26  1  0
  1 27  1  0
  2 28  1  0
  3 29  1  0
  3 30  1  0
  6 31  1  0
  7 32  1  0
  8 33  1  0
  8 34  1  0
  9 35  1  0
 12 36  1  0
 13 37  1  0
 14 38  1  0
 17 39  1  0
 17 40  1  0
 17 41  1  0
 18 42  1  0
 18 43  1  0
 18 44  1  0
 19 45  1  0
 19 46  1  0
 19 47  1  0
 21 48  1  0
 22 49  1  0
 24 50  1  0
M  END
>  <Energy>  (962) 
521.84522656490731

>  <compound_id>  (962) 
28753

>  <target_id>  (962) 
1

>  <reference_id>  (962) 
80

>  <inspiration_ids>  (962) 
[80, 54]

>  <energy_score>  (962) 
547.8771315256779

>  <distance_score>  (962) 
14.217595072901792

>  <path>  (962) 
/opt/xchem-fragalysis-2/maxwin/BulkDock/SCRATCH/511021/C28753-P80/C28753-P80.minimised.mol

>  <scratch_subdir>  (962) 
/opt/xchem-fragalysis-2/maxwin/BulkDock/SCRATCH/511021/C28753-P80

>  <fragmenstein_runtime>  (962) 
42.06035614013672

>  <fragmenstein_outcome>  (962) 
too moved

>  <fragmenstein_mode>  (962) 
expansion

>  <fragmenstein_error>  (962) 


$$$$
C28753-P54
     RDKit          3D

 50 51  0  0  0  0  0  0  0  0999 V2000
    4.6526  -13.6451   22.0570 C   0  0  0  0  0  0  0  0  0  0  0  0
    3.4846  -14.3515   21.5385 C   0  0  0  0  0  0  0  0  0  0  0  0
    2.7779  -15.8341   22.7680 C   0  0  0  0  0  0  0  0  0  0  0  0
    2.9119  -17.2841   23.7176 C   0  0  0  0  0  0  0  0  0  0  0  0
    4.0001  -17.6006   24.1123 O   0  0  0  0  0  0  0  0  0  0  0  0
    1.6066  -17.8670   23.9742 N   0  0  0  0  0  0  0  0  0  0  0  0
    1.2142  -19.0970   24.7251 C   0  0  0  0  0  0  0  0  0  0  0  0
   -0.1924  -18.9118   25.4689 C   0  0  0  0  0  0  0  0  0  0  0  0
   -0.4762  -19.8816   26.5557 N   0  0  0  0  0  0  0  0  0  0  0  0
   -1.7518  -20.4136   26.3612 C   0  0  0  0  0  0  0  0  0  0  0  0
   -2.8196  -19.7571   26.8152 N   0  0  0  0  0  0  0  0  0  0  0  0
   -4.0020  -20.2223   26.3998 C   0  0  0  0  0  0  0  0  0  0  0  0
   -4.1426  -21.2547   25.5063 C   0  0  0  0  0  0  0  0  0  0  0  0
   -2.9953  -21.8947   25.1493 C   0  0  0  0  0  0  0  0  0  0  0  0
   -1.7995  -21.5182   25.6063 N   0  0  0  0  0  0  0  0  0  0  0  0
    1.3509  -20.3576   23.7634 C   0  0  0  0  0  0  0  0  0  0  0  0
    1.4342  -21.6812   24.5508 C   0  0  0  0  0  0  0  0  0  0  0  0
    0.1856  -20.4311   22.7601 C   0  0  0  0  0  0  0  0  0  0  0  0
    2.6628  -20.3056   22.9355 C   0  0  0  0  0  0  0  0  0  0  0  0
    2.9435  -12.5722   21.5659 N   0  0  0  0  0  0  0  0  0  0  0  0
    1.7182  -12.6655   21.1551 C   0  0  0  0  0  0  0  0  0  0  0  0
    1.3475  -11.3967   21.7331 C   0  0  0  0  0  0  0  0  0  0  0  0
    1.5757  -10.5238   20.8740 N   0  0  0  0  0  0  0  0  0  0  0  0
    2.5779  -11.2381   20.5178 C   0  0  0  0  0  0  0  0  0  0  0  0
    5.6115  -14.1896   22.2101 H   0  0  0  0  0  0  0  0  0  0  0  0
    4.4736  -12.8696   22.8226 H   0  0  0  0  0  0  0  0  0  0  0  0
    4.7409  -13.3115   21.1198 H   0  0  0  0  0  0  0  0  0  0  0  0
    3.9196  -14.5635   22.4379 H   0  0  0  0  0  0  0  0  0  0  0  0
    3.0648  -16.5592   22.0348 H   0  0  0  0  0  0  0  0  0  0  0  0
    3.0698  -15.4464   23.7578 H   0  0  0  0  0  0  0  0  0  0  0  0
    0.9151  -17.3911   23.4065 H   0  0  0  0  0  0  0  0  0  0  0  0
    1.9821  -19.1993   25.5036 H   0  0  0  0  0  0  0  0  0  0  0  0
   -0.1779  -17.9200   25.9401 H   0  0  0  0  0  0  0  0  0  0  0  0
   -0.9864  -18.8585   24.7119 H   0  0  0  0  0  0  0  0  0  0  0  0
    0.1149  -20.6973   26.4396 H   0  0  0  0  0  0  0  0  0  0  0  0
   -4.8515  -19.7096   26.8236 H   0  0  0  0  0  0  0  0  0  0  0  0
   -5.0914  -21.6220   25.1576 H   0  0  0  0  0  0  0  0  0  0  0  0
   -3.0025  -22.7510   24.4829 H   0  0  0  0  0  0  0  0  0  0  0  0
    2.1406  -21.6029   25.3843 H   0  0  0  0  0  0  0  0  0  0  0  0
    1.7753  -22.5047   23.9114 H   0  0  0  0  0  0  0  0  0  0  0  0
    0.4717  -22.0020   24.9411 H   0  0  0  0  0  0  0  0  0  0  0  0
   -0.7741  -20.5935   23.2558 H   0  0  0  0  0  0  0  0  0  0  0  0
    0.3242  -21.2597   22.0558 H   0  0  0  0  0  0  0  0  0  0  0  0
    0.1076  -19.5100   22.1726 H   0  0  0  0  0  0  0  0  0  0  0  0
    2.7997  -21.2230   22.3495 H   0  0  0  0  0  0  0  0  0  0  0  0
    3.5369  -20.2050   23.5875 H   0  0  0  0  0  0  0  0  0  0  0  0
    2.6629  -19.4856   22.2108 H   0  0  0  0  0  0  0  0  0  0  0  0
    2.1313  -13.0314   20.2174 H   0  0  0  0  0  0  0  0  0  0  0  0
    0.9463  -11.1853   22.7285 H   0  0  0  0  0  0  0  0  0  0  0  0
    2.7964  -11.1963   19.4348 H   0  0  0  0  0  0  0  0  0  0  0  0
  1  2  1  0
  2  3  1  0
  3  4  1  0
  4  5  2  0
  4  6  1  0
  6  7  1  0
  7  8  1  0
  8  9  1  0
  9 10  1  0
 10 11  2  0
 11 12  1  0
 12 13  2  0
 13 14  1  0
 14 15  2  0
  7 16  1  0
 16 17  1  0
 16 18  1  0
 16 19  1  0
  2 20  1  0
 20 21  1  0
 21 22  2  0
 22 23  1  0
 23 24  2  0
 15 10  1  0
 24 20  1  0
  1 25  1  0
  1 26  1  0
  1 27  1  0
  2 28  1  0
  3 29  1  0
  3 30  1  0
  6 31  1  0
  7 32  1  0
  8 33  1  0
  8 34  1  0
  9 35  1  0
 12 36  1  0
 13 37  1  0
 14 38  1  0
 17 39  1  0
 17 40  1  0
 17 41  1  0
 18 42  1  0
 18 43  1  0
 18 44  1  0
 19 45  1  0
 19 46  1  0
 19 47  1  0
 21 48  1  0
 22 49  1  0
 24 50  1  0
M  END
>  <Energy>  (963) 
524.54664252701764

>  <compound_id>  (963) 
28753

>  <target_id>  (963) 
1

>  <reference_id>  (963) 
54

>  <inspiration_ids>  (963) 
[80, 54]

>  <energy_score>  (963) 
550.5785474877994

>  <distance_score>  (963) 
13.251997269960453

>  <path>  (963) 
/opt/xchem-fragalysis-2/maxwin/BulkDock/SCRATCH/511021/C28753-P54/C28753-P54.minimised.mol

>  <scratch_subdir>  (963) 
/opt/xchem-fragalysis-2/maxwin/BulkDock/SCRATCH/511021/C28753-P54

>  <fragmenstein_runtime>  (963) 
34.07587003707886

>  <fragmenstein_outcome>  (963) 
too moved

>  <fragmenstein_mode>  (963) 
expansion

>  <fragmenstein_error>  (963) 


$$$$
C50848-P80
     RDKit          3D

 47 48  0  0  0  0  0  0  0  0999 V2000
   -3.9020  -23.3132   27.1151 C   0  0  0  0  0  0  0  0  0  0  0  0
   -2.6274  -22.5690   26.8007 C   0  0  0  0  0  0  0  0  0  0  0  0
   -2.8194  -21.3722   25.6750 C   0  0  0  0  0  0  0  0  0  0  0  0
   -3.1566  -19.7645   25.3245 C   0  0  0  0  0  0  0  0  0  0  0  0
   -4.2382  -19.7083   24.7274 O   0  0  0  0  0  0  0  0  0  0  0  0
   -2.0581  -18.1922   25.5904 N   0  0  0  0  0  0  0  0  0  0  0  0
   -2.2559  -16.2675   24.9192 C   0  0  0  0  0  0  0  0  0  0  0  0
   -0.8972  -14.7222   24.3745 C   0  0  0  0  0  0  0  0  0  0  0  0
   -0.9783  -14.8059   22.5788 C   0  0  0  0  0  0  0  0  0  0  0  0
    0.8877  -14.0807   23.6952 N   0  0  0  0  0  0  0  0  0  0  0  0
    1.9489  -12.6375   24.1727 C   0  0  0  0  0  0  0  0  0  0  0  0
    1.7019  -11.9114   25.0957 O   0  0  0  0  0  0  0  0  0  0  0  0
    3.4952  -12.1043   23.0352 C   0  0  0  0  0  0  0  0  0  0  0  0
    5.1335  -10.8253   22.9118 C   0  0  0  0  0  0  0  0  0  0  0  0
    5.6054   -9.3961   23.0740 C   0  0  0  0  0  0  0  0  0  0  0  0
    6.8590   -9.1216   22.5476 N   0  0  0  0  0  0  0  0  0  0  0  0
    7.4064  -10.2954   22.5265 C   0  0  0  0  0  0  0  0  0  0  0  0
    6.6071  -11.0979   23.3052 N   0  0  0  0  0  0  0  0  0  0  0  0
    7.1360  -11.5562   24.5865 C   0  0  0  0  0  0  0  0  0  0  0  0
   -2.8488  -22.1476   24.3465 N   0  0  0  0  0  0  0  0  0  0  0  0
   -3.9689  -22.5882   23.6888 C   0  0  0  0  0  0  0  0  0  0  0  0
   -3.6908  -23.6559   22.9827 N   0  0  0  0  0  0  0  0  0  0  0  0
   -2.3528  -23.7944   23.1666 C   0  0  0  0  0  0  0  0  0  0  0  0
   -1.7816  -22.9097   23.9907 N   0  0  0  0  0  0  0  0  0  0  0  0
   -3.6887  -23.9874   27.9489 H   0  0  0  0  0  0  0  0  0  0  0  0
   -4.7470  -22.6783   27.3804 H   0  0  0  0  0  0  0  0  0  0  0  0
   -4.1731  -23.8800   26.2260 H   0  0  0  0  0  0  0  0  0  0  0  0
   -2.1343  -22.2508   27.7320 H   0  0  0  0  0  0  0  0  0  0  0  0
   -1.9446  -23.3449   26.4199 H   0  0  0  0  0  0  0  0  0  0  0  0
   -3.9160  -21.4784   25.8120 H   0  0  0  0  0  0  0  0  0  0  0  0
   -1.2628  -18.4383   26.1697 H   0  0  0  0  0  0  0  0  0  0  0  0
   -2.5324  -15.8972   25.8551 H   0  0  0  0  0  0  0  0  0  0  0  0
   -3.1396  -15.8742   24.4284 H   0  0  0  0  0  0  0  0  0  0  0  0
   -1.2321  -13.8828   24.9955 H   0  0  0  0  0  0  0  0  0  0  0  0
   -0.4233  -15.6460   22.0168 H   0  0  0  0  0  0  0  0  0  0  0  0
   -0.3025  -14.0361   22.3255 H   0  0  0  0  0  0  0  0  0  0  0  0
   -1.8254  -14.6759   21.8561 H   0  0  0  0  0  0  0  0  0  0  0  0
    1.3253  -14.5764   22.9646 H   0  0  0  0  0  0  0  0  0  0  0  0
    3.4724  -12.5627   22.0537 H   0  0  0  0  0  0  0  0  0  0  0  0
    3.7646  -12.8468   23.7555 H   0  0  0  0  0  0  0  0  0  0  0  0
    5.0416   -8.4970   23.2802 H   0  0  0  0  0  0  0  0  0  0  0  0
    8.4089  -10.5540   22.2126 H   0  0  0  0  0  0  0  0  0  0  0  0
    7.4551  -10.6772   25.1556 H   0  0  0  0  0  0  0  0  0  0  0  0
    6.3894  -12.0973   25.1582 H   0  0  0  0  0  0  0  0  0  0  0  0
    8.0038  -12.1906   24.3920 H   0  0  0  0  0  0  0  0  0  0  0  0
   -4.9351  -22.1266   23.7795 H   0  0  0  0  0  0  0  0  0  0  0  0
   -1.7693  -24.5697   22.6870 H   0  0  0  0  0  0  0  0  0  0  0  0
  1  2  1  0
  2  3  1  0
  3  4  1  0
  4  5  2  0
  4  6  1  0
  6  7  1  0
  7  8  1  0
  8  9  1  0
  8 10  1  0
 10 11  1  0
 11 12  2  0
 11 13  1  0
 13 14  1  0
 14 15  2  0
 15 16  1  0
 16 17  2  0
 17 18  1  0
 18 19  1  0
  3 20  1  0
 20 21  1  0
 21 22  2  0
 22 23  1  0
 23 24  2  0
 18 14  1  0
 24 20  1  0
  1 25  1  0
  1 26  1  0
  1 27  1  0
  2 28  1  0
  2 29  1  0
  3 30  1  0
  6 31  1  0
  7 32  1  0
  7 33  1  0
  8 34  1  0
  9 35  1  0
  9 36  1  0
  9 37  1  0
 10 38  1  0
 13 39  1  0
 13 40  1  0
 15 41  1  0
 17 42  1  0
 19 43  1  0
 19 44  1  0
 19 45  1  0
 21 46  1  0
 23 47  1  0
M  END
>  <Energy>  (964) 
926.04942289540452

>  <compound_id>  (964) 
50848

>  <target_id>  (964) 
1

>  <reference_id>  (964) 
80

>  <inspiration_ids>  (964) 
[80, 54]

>  <energy_score>  (964) 
863.3207301991474

>  <distance_score>  (964) 
11.104623841556817

>  <path>  (964) 
/opt/xchem-fragalysis-2/maxwin/BulkDock/SCRATCH/511021/C50848-P80/C50848-P80.minimised.mol

>  <scratch_subdir>  (964) 
/opt/xchem-fragalysis-2/maxwin/BulkDock/SCRATCH/511021/C50848-P80

>  <fragmenstein_runtime>  (964) 
29.643038511276245

>  <fragmenstein_outcome>  (964) 
too moved

>  <fragmenstein_mode>  (964) 
expansion

>  <fragmenstein_error>  (964) 


$$$$
C50848-P54
     RDKit          3D

 47 48  0  0  0  0  0  0  0  0999 V2000
   -3.9228  -21.3093   29.2135 C   0  0  0  0  0  0  0  0  0  0  0  0
   -4.2454  -21.0287   27.5427 C   0  0  0  0  0  0  0  0  0  0  0  0
   -4.9568  -19.8788   26.6903 C   0  0  0  0  0  0  0  0  0  0  0  0
   -4.3243  -18.7247   25.0863 C   0  0  0  0  0  0  0  0  0  0  0  0
   -4.7160  -18.6978   23.9585 O   0  0  0  0  0  0  0  0  0  0  0  0
   -2.7354  -17.6467   25.6328 N   0  0  0  0  0  0  0  0  0  0  0  0
   -1.8377  -16.5713   24.8366 C   0  0  0  0  0  0  0  0  0  0  0  0
   -0.6266  -15.6452   25.9457 C   0  0  0  0  0  0  0  0  0  0  0  0
   -2.0329  -14.5299   25.9124 C   0  0  0  0  0  0  0  0  0  0  0  0
    1.0631  -14.7493   25.6431 N   0  0  0  0  0  0  0  0  0  0  0  0
    1.6333  -13.5577   26.2415 C   0  0  0  0  0  0  0  0  0  0  0  0
    1.2059  -12.9325   27.1446 O   0  0  0  0  0  0  0  0  0  0  0  0
    3.2722  -12.5810   25.4254 C   0  0  0  0  0  0  0  0  0  0  0  0
    4.1837  -10.8544   24.9096 C   0  0  0  0  0  0  0  0  0  0  0  0
    5.0241  -10.5262   23.6815 C   0  0  0  0  0  0  0  0  0  0  0  0
    5.8371   -9.4409   23.5528 N   0  0  0  0  0  0  0  0  0  0  0  0
    5.6301   -8.7832   24.6402 C   0  0  0  0  0  0  0  0  0  0  0  0
    4.6645   -9.3675   25.4601 N   0  0  0  0  0  0  0  0  0  0  0  0
    4.1378   -8.4871   26.5230 C   0  0  0  0  0  0  0  0  0  0  0  0
   -6.2220  -20.7477   27.5463 N   0  0  0  0  0  0  0  0  0  0  0  0
   -7.4896  -20.5285   27.5520 C   0  0  0  0  0  0  0  0  0  0  0  0
   -8.2370  -21.5107   28.0606 N   0  0  0  0  0  0  0  0  0  0  0  0
   -7.2882  -22.1398   28.9345 C   0  0  0  0  0  0  0  0  0  0  0  0
   -6.1245  -21.4961   28.7500 N   0  0  0  0  0  0  0  0  0  0  0  0
   -2.8592  -21.5723   29.3672 H   0  0  0  0  0  0  0  0  0  0  0  0
   -4.1188  -20.4379   29.8393 H   0  0  0  0  0  0  0  0  0  0  0  0
   -4.3305  -22.2130   29.6362 H   0  0  0  0  0  0  0  0  0  0  0  0
   -3.2960  -21.5063   27.3692 H   0  0  0  0  0  0  0  0  0  0  0  0
   -4.6230  -21.6948   26.8042 H   0  0  0  0  0  0  0  0  0  0  0  0
   -5.5756  -19.0920   27.0400 H   0  0  0  0  0  0  0  0  0  0  0  0
   -2.6020  -17.7245   26.6124 H   0  0  0  0  0  0  0  0  0  0  0  0
   -0.8220  -16.6952   24.5667 H   0  0  0  0  0  0  0  0  0  0  0  0
   -2.3877  -15.9707   24.1514 H   0  0  0  0  0  0  0  0  0  0  0  0
   -0.5516  -15.9912   26.9467 H   0  0  0  0  0  0  0  0  0  0  0  0
   -2.9296  -14.9432   26.3604 H   0  0  0  0  0  0  0  0  0  0  0  0
   -1.8220  -13.4665   26.1204 H   0  0  0  0  0  0  0  0  0  0  0  0
   -2.5722  -14.5194   25.0085 H   0  0  0  0  0  0  0  0  0  0  0  0
    1.7038  -15.0948   24.9635 H   0  0  0  0  0  0  0  0  0  0  0  0
    2.5231  -11.9485   24.8857 H   0  0  0  0  0  0  0  0  0  0  0  0
    3.7129  -13.2832   24.7371 H   0  0  0  0  0  0  0  0  0  0  0  0
    4.9025  -11.1453   22.8438 H   0  0  0  0  0  0  0  0  0  0  0  0
    6.1088   -7.8474   24.9020 H   0  0  0  0  0  0  0  0  0  0  0  0
    3.0458   -8.5178   26.5217 H   0  0  0  0  0  0  0  0  0  0  0  0
    4.5886   -8.7847   27.4737 H   0  0  0  0  0  0  0  0  0  0  0  0
    4.4293   -7.4538   26.3077 H   0  0  0  0  0  0  0  0  0  0  0  0
   -7.7067  -19.5881   27.1159 H   0  0  0  0  0  0  0  0  0  0  0  0
   -7.5630  -22.9368   29.6137 H   0  0  0  0  0  0  0  0  0  0  0  0
  1  2  1  0
  2  3  1  0
  3  4  1  0
  4  5  2  0
  4  6  1  0
  6  7  1  0
  7  8  1  0
  8  9  1  0
  8 10  1  0
 10 11  1  0
 11 12  2  0
 11 13  1  0
 13 14  1  0
 14 15  2  0
 15 16  1  0
 16 17  2  0
 17 18  1  0
 18 19  1  0
  3 20  1  0
 20 21  1  0
 21 22  2  0
 22 23  1  0
 23 24  2  0
 18 14  1  0
 24 20  1  0
  1 25  1  0
  1 26  1  0
  1 27  1  0
  2 28  1  0
  2 29  1  0
  3 30  1  0
  6 31  1  0
  7 32  1  0
  7 33  1  0
  8 34  1  0
  9 35  1  0
  9 36  1  0
  9 37  1  0
 10 38  1  0
 13 39  1  0
 13 40  1  0
 15 41  1  0
 17 42  1  0
 19 43  1  0
 19 44  1  0
 19 45  1  0
 21 46  1  0
 23 47  1  0
M  END
>  <Energy>  (965) 
937.99352030413399

>  <compound_id>  (965) 
50848

>  <target_id>  (965) 
1

>  <reference_id>  (965) 
54

>  <inspiration_ids>  (965) 
[80, 54]

>  <energy_score>  (965) 
875.2648276078842

>  <distance_score>  (965) 
10.574241157104325

>  <path>  (965) 
/opt/xchem-fragalysis-2/maxwin/BulkDock/SCRATCH/511021/C50848-P54/C50848-P54.minimised.mol

>  <scratch_subdir>  (965) 
/opt/xchem-fragalysis-2/maxwin/BulkDock/SCRATCH/511021/C50848-P54

>  <fragmenstein_runtime>  (965) 
32.43265151977539

>  <fragmenstein_outcome>  (965) 
too moved

>  <fragmenstein_mode>  (965) 
expansion

>  <fragmenstein_error>  (965) 


$$$$
C50849-P80
     RDKit          3D

 42 43  0  0  0  0  0  0  0  0999 V2000
   -6.1636  -21.7213   22.1218 C   0  0  0  0  0  0  0  0  0  0  0  0
   -5.7580  -20.4491   21.4708 C   0  0  0  0  0  0  0  0  0  0  0  0
   -4.5715  -19.8708   21.4964 N   0  0  0  0  0  0  0  0  0  0  0  0
   -4.6233  -18.8011   20.5953 C   0  0  0  0  0  0  0  0  0  0  0  0
   -3.4381  -17.8537   20.4950 C   0  0  0  0  0  0  0  0  0  0  0  0
   -3.0556  -17.0243   19.2281 C   0  0  0  0  0  0  0  0  0  0  0  0
   -3.5413  -17.3203   18.1691 O   0  0  0  0  0  0  0  0  0  0  0  0
   -2.0484  -15.9536   19.5798 N   0  0  0  0  0  0  0  0  0  0  0  0
   -1.3233  -14.7028   18.6086 C   0  0  0  0  0  0  0  0  0  0  0  0
    0.5722  -13.9955   17.8912 C   0  0  0  0  0  0  0  0  0  0  0  0
    1.6971  -15.1574   18.5815 O   0  0  0  0  0  0  0  0  0  0  0  0
    2.3627  -13.6221   18.0248 C   0  0  0  0  0  0  0  0  0  0  0  0
    3.3302  -11.9308   17.9117 N   0  0  0  0  0  0  0  0  0  0  0  0
    2.7543  -10.1257   17.8706 C   0  0  0  0  0  0  0  0  0  0  0  0
    1.6341   -9.6418   17.8087 O   0  0  0  0  0  0  0  0  0  0  0  0
    3.8019   -9.0012   18.0760 C   0  0  0  0  0  0  0  0  0  0  0  0
    4.5579   -7.2654   17.9596 N   0  0  0  0  0  0  0  0  0  0  0  0
    5.7512   -7.0844   18.4622 N   0  0  0  0  0  0  0  0  0  0  0  0
    5.9825   -5.8494   18.1495 C   0  0  0  0  0  0  0  0  0  0  0  0
    5.1218   -5.5093   17.1594 C   0  0  0  0  0  0  0  0  0  0  0  0
    4.5801   -6.5846   16.7568 N   0  0  0  0  0  0  0  0  0  0  0  0
   -5.9115  -18.7010   20.1124 C   0  0  0  0  0  0  0  0  0  0  0  0
   -6.6174  -19.7322   20.6782 N   0  0  0  0  0  0  0  0  0  0  0  0
   -7.1866  -21.6639   22.4993 H   0  0  0  0  0  0  0  0  0  0  0  0
   -6.1231  -22.5364   21.3915 H   0  0  0  0  0  0  0  0  0  0  0  0
   -5.4717  -21.9699   22.9301 H   0  0  0  0  0  0  0  0  0  0  0  0
   -3.7365  -17.1177   21.2378 H   0  0  0  0  0  0  0  0  0  0  0  0
   -2.5380  -18.3965   20.8016 H   0  0  0  0  0  0  0  0  0  0  0  0
   -1.9228  -15.9294   20.5973 H   0  0  0  0  0  0  0  0  0  0  0  0
   -0.7344  -15.2311   19.3068 H   0  0  0  0  0  0  0  0  0  0  0  0
   -1.9380  -13.8166   18.5427 H   0  0  0  0  0  0  0  0  0  0  0  0
    0.3202  -13.1071   18.3543 H   0  0  0  0  0  0  0  0  0  0  0  0
    1.1120  -15.8055   19.0444 H   0  0  0  0  0  0  0  0  0  0  0  0
    2.9932  -14.5047   17.6042 H   0  0  0  0  0  0  0  0  0  0  0  0
    3.0376  -13.9991   18.8633 H   0  0  0  0  0  0  0  0  0  0  0  0
    4.2956  -11.9922   18.0464 H   0  0  0  0  0  0  0  0  0  0  0  0
    2.9508   -8.2942   18.1858 H   0  0  0  0  0  0  0  0  0  0  0  0
    4.7326   -9.1837   18.5742 H   0  0  0  0  0  0  0  0  0  0  0  0
    6.6002   -5.2895   18.8155 H   0  0  0  0  0  0  0  0  0  0  0  0
    4.7166   -4.6230   16.6927 H   0  0  0  0  0  0  0  0  0  0  0  0
   -6.3787  -17.9938   19.4414 H   0  0  0  0  0  0  0  0  0  0  0  0
   -7.5869  -19.9595   20.5016 H   0  0  0  0  0  0  0  0  0  0  0  0
  1  2  1  0
  2  3  2  0
  3  4  1  0
  4  5  1  0
  5  6  1  0
  6  7  2  0
  6  8  1  0
  8  9  1  0
  9 10  1  0
 10 11  1  0
 10 12  1  0
 12 13  1  0
 13 14  1  0
 14 15  2  0
 14 16  1  0
 16 17  1  0
 17 18  1  0
 18 19  2  0
 19 20  1  0
 20 21  2  0
  4 22  2  0
 22 23  1  0
 23  2  1  0
 21 17  1  0
  1 24  1  0
  1 25  1  0
  1 26  1  0
  5 27  1  0
  5 28  1  0
  8 29  1  0
  9 30  1  0
  9 31  1  0
 10 32  1  0
 11 33  1  0
 12 34  1  0
 12 35  1  0
 13 36  1  0
 16 37  1  0
 16 38  1  0
 19 39  1  0
 20 40  1  0
 22 41  1  0
 23 42  1  0
M  END
>  <Energy>  (966) 
772.0529232586789

>  <compound_id>  (966) 
50849

>  <target_id>  (966) 
1

>  <reference_id>  (966) 
80

>  <inspiration_ids>  (966) 
[80, 54]

>  <energy_score>  (966) 
683.5276237722663

>  <distance_score>  (966) 
10.002049185384182

>  <path>  (966) 
/opt/xchem-fragalysis-2/maxwin/BulkDock/SCRATCH/511021/C50849-P80/C50849-P80.minimised.mol

>  <scratch_subdir>  (966) 
/opt/xchem-fragalysis-2/maxwin/BulkDock/SCRATCH/511021/C50849-P80

>  <fragmenstein_runtime>  (966) 
42.852010011672974

>  <fragmenstein_outcome>  (966) 
too moved

>  <fragmenstein_mode>  (966) 
expansion

>  <fragmenstein_error>  (966) 


$$$$
C50849-P54
     RDKit          3D

 42 43  0  0  0  0  0  0  0  0999 V2000
   -2.7533  -18.3700   28.4165 C   0  0  0  0  0  0  0  0  0  0  0  0
   -3.3493  -17.5478   27.3340 C   0  0  0  0  0  0  0  0  0  0  0  0
   -3.0270  -16.3182   26.9687 N   0  0  0  0  0  0  0  0  0  0  0  0
   -3.9848  -15.9124   26.0696 C   0  0  0  0  0  0  0  0  0  0  0  0
   -4.1668  -14.5070   25.5431 C   0  0  0  0  0  0  0  0  0  0  0  0
   -2.9981  -13.5433   25.1140 C   0  0  0  0  0  0  0  0  0  0  0  0
   -2.4801  -12.9364   26.0205 O   0  0  0  0  0  0  0  0  0  0  0  0
   -2.7116  -13.5056   23.5813 N   0  0  0  0  0  0  0  0  0  0  0  0
   -1.5046  -12.6899   22.6940 C   0  0  0  0  0  0  0  0  0  0  0  0
    0.2525  -12.4088   21.8222 C   0  0  0  0  0  0  0  0  0  0  0  0
    1.1808  -13.2852   21.1453 O   0  0  0  0  0  0  0  0  0  0  0  0
    1.5684  -11.0657   21.1082 C   0  0  0  0  0  0  0  0  0  0  0  0
    2.4323  -11.2108   19.4317 N   0  0  0  0  0  0  0  0  0  0  0  0
    3.5645  -10.2773   18.7121 C   0  0  0  0  0  0  0  0  0  0  0  0
    4.0054   -9.2372   19.1194 O   0  0  0  0  0  0  0  0  0  0  0  0
    4.4749  -10.8784   17.1007 C   0  0  0  0  0  0  0  0  0  0  0  0
    5.3192   -9.9245   15.8039 N   0  0  0  0  0  0  0  0  0  0  0  0
    6.0955   -9.9132   14.2730 N   0  0  0  0  0  0  0  0  0  0  0  0
    7.3510   -9.6533   14.1757 C   0  0  0  0  0  0  0  0  0  0  0  0
    7.1055   -8.8025   15.1046 C   0  0  0  0  0  0  0  0  0  0  0  0
    6.3258   -9.1978   16.1676 N   0  0  0  0  0  0  0  0  0  0  0  0
   -4.8818  -16.9549   25.8803 C   0  0  0  0  0  0  0  0  0  0  0  0
   -4.3857  -18.0129   26.5763 N   0  0  0  0  0  0  0  0  0  0  0  0
   -1.6619  -18.3569   28.3344 H   0  0  0  0  0  0  0  0  0  0  0  0
   -3.0251  -17.9592   29.3928 H   0  0  0  0  0  0  0  0  0  0  0  0
   -3.0811  -19.4125   28.3662 H   0  0  0  0  0  0  0  0  0  0  0  0
   -4.6899  -13.9678   26.3484 H   0  0  0  0  0  0  0  0  0  0  0  0
   -4.9035  -14.5779   24.7474 H   0  0  0  0  0  0  0  0  0  0  0  0
   -3.2697  -14.2012   23.1207 H   0  0  0  0  0  0  0  0  0  0  0  0
   -1.7636  -13.4472   21.9545 H   0  0  0  0  0  0  0  0  0  0  0  0
   -2.0071  -11.7724   22.9723 H   0  0  0  0  0  0  0  0  0  0  0  0
   -0.6133  -12.5552   21.0766 H   0  0  0  0  0  0  0  0  0  0  0  0
    2.0917  -12.9490   20.9921 H   0  0  0  0  0  0  0  0  0  0  0  0
    2.4361  -11.2983   21.6998 H   0  0  0  0  0  0  0  0  0  0  0  0
    1.1108  -10.1401   21.1566 H   0  0  0  0  0  0  0  0  0  0  0  0
    2.3201  -12.0720   18.8952 H   0  0  0  0  0  0  0  0  0  0  0  0
    5.3865  -11.2960   17.5162 H   0  0  0  0  0  0  0  0  0  0  0  0
    3.9149  -11.6196   16.5495 H   0  0  0  0  0  0  0  0  0  0  0  0
    7.9581   -9.8129   13.3012 H   0  0  0  0  0  0  0  0  0  0  0  0
    7.5738   -7.8519   15.2680 H   0  0  0  0  0  0  0  0  0  0  0  0
   -5.7995  -17.0174   25.3160 H   0  0  0  0  0  0  0  0  0  0  0  0
   -4.7624  -18.9478   26.6210 H   0  0  0  0  0  0  0  0  0  0  0  0
  1  2  1  0
  2  3  2  0
  3  4  1  0
  4  5  1  0
  5  6  1  0
  6  7  2  0
  6  8  1  0
  8  9  1  0
  9 10  1  0
 10 11  1  0
 10 12  1  0
 12 13  1  0
 13 14  1  0
 14 15  2  0
 14 16  1  0
 16 17  1  0
 17 18  1  0
 18 19  2  0
 19 20  1  0
 20 21  2  0
  4 22  2  0
 22 23  1  0
 23  2  1  0
 21 17  1  0
  1 24  1  0
  1 25  1  0
  1 26  1  0
  5 27  1  0
  5 28  1  0
  8 29  1  0
  9 30  1  0
  9 31  1  0
 10 32  1  0
 11 33  1  0
 12 34  1  0
 12 35  1  0
 13 36  1  0
 16 37  1  0
 16 38  1  0
 19 39  1  0
 20 40  1  0
 22 41  1  0
 23 42  1  0
M  END
>  <Energy>  (967) 
692.18116998397772

>  <compound_id>  (967) 
50849

>  <target_id>  (967) 
1

>  <reference_id>  (967) 
54

>  <inspiration_ids>  (967) 
[80, 54]

>  <energy_score>  (967) 
603.6558704975521

>  <distance_score>  (967) 
10.041097369472217

>  <path>  (967) 
/opt/xchem-fragalysis-2/maxwin/BulkDock/SCRATCH/511021/C50849-P54/C50849-P54.minimised.mol

>  <scratch_subdir>  (967) 
/opt/xchem-fragalysis-2/maxwin/BulkDock/SCRATCH/511021/C50849-P54

>  <fragmenstein_runtime>  (967) 
32.856510162353516

>  <fragmenstein_outcome>  (967) 
too moved

>  <fragmenstein_mode>  (967) 
expansion

>  <fragmenstein_error>  (967) 


$$$$
C50850-P80
     RDKit          3D

 40 41  0  0  0  0  0  0  0  0999 V2000
    0.7302  -17.4826   27.7989 C   0  0  0  0  0  0  0  0  0  0  0  0
    0.7291  -16.2988   28.7698 C   0  0  0  0  0  0  0  0  0  0  0  0
   -0.6065  -14.9756   28.0841 C   0  0  0  0  0  0  0  0  0  0  0  0
   -2.2453  -14.5558   29.2097 C   0  0  0  0  0  0  0  0  0  0  0  0
   -3.4938  -13.1469   29.6472 N   0  0  0  0  0  0  0  0  0  0  0  0
   -5.2160  -13.2202   30.0249 C   0  0  0  0  0  0  0  0  0  0  0  0
   -5.9019  -14.2327   30.1630 O   0  0  0  0  0  0  0  0  0  0  0  0
   -6.1161  -11.9790   30.0952 C   0  0  0  0  0  0  0  0  0  0  0  0
   -7.0579  -11.9823   31.1296 C   0  0  0  0  0  0  0  0  0  0  0  0
   -8.4041  -12.2780   31.0442 N   0  0  0  0  0  0  0  0  0  0  0  0
   -8.8590  -12.5030   29.8042 C   0  0  0  0  0  0  0  0  0  0  0  0
   -8.0458  -12.2939   28.7205 C   0  0  0  0  0  0  0  0  0  0  0  0
   -6.7325  -11.9553   28.8496 N   0  0  0  0  0  0  0  0  0  0  0  0
    1.2489  -14.7103   27.1606 N   0  0  0  0  0  0  0  0  0  0  0  0
    1.7837  -13.6521   26.3604 C   0  0  0  0  0  0  0  0  0  0  0  0
    1.2716  -12.6817   25.9454 O   0  0  0  0  0  0  0  0  0  0  0  0
    3.6901  -14.1690   26.0598 C   0  0  0  0  0  0  0  0  0  0  0  0
    4.5138  -13.8019   24.6276 C   0  0  0  0  0  0  0  0  0  0  0  0
    5.8655  -13.5033   24.4227 C   0  0  0  0  0  0  0  0  0  0  0  0
    6.1208  -13.0367   23.1512 N   0  0  0  0  0  0  0  0  0  0  0  0
    4.9596  -13.0775   22.5472 C   0  0  0  0  0  0  0  0  0  0  0  0
    3.9692  -13.5376   23.3845 N   0  0  0  0  0  0  0  0  0  0  0  0
    1.6669  -17.5196   27.2433 H   0  0  0  0  0  0  0  0  0  0  0  0
    0.6160  -18.1762   28.5902 H   0  0  0  0  0  0  0  0  0  0  0  0
   -0.1652  -17.7185   27.1959 H   0  0  0  0  0  0  0  0  0  0  0  0
    1.7474  -16.1490   28.6036 H   0  0  0  0  0  0  0  0  0  0  0  0
    0.7561  -16.3686   29.8883 H   0  0  0  0  0  0  0  0  0  0  0  0
   -0.4627  -15.0971   29.2179 H   0  0  0  0  0  0  0  0  0  0  0  0
   -2.8509  -15.2097   28.5865 H   0  0  0  0  0  0  0  0  0  0  0  0
   -2.2409  -15.1782   30.1071 H   0  0  0  0  0  0  0  0  0  0  0  0
   -3.2190  -12.1797   29.5126 H   0  0  0  0  0  0  0  0  0  0  0  0
   -6.7824  -11.6720   32.1211 H   0  0  0  0  0  0  0  0  0  0  0  0
   -9.8973  -12.7897   29.7071 H   0  0  0  0  0  0  0  0  0  0  0  0
   -8.4071  -12.3862   27.7042 H   0  0  0  0  0  0  0  0  0  0  0  0
    1.9827  -15.3337   27.4130 H   0  0  0  0  0  0  0  0  0  0  0  0
    4.2433  -13.8199   26.9444 H   0  0  0  0  0  0  0  0  0  0  0  0
    4.0069  -15.1826   26.2614 H   0  0  0  0  0  0  0  0  0  0  0  0
    6.6656  -13.5445   25.1496 H   0  0  0  0  0  0  0  0  0  0  0  0
    4.7487  -12.7800   21.5290 H   0  0  0  0  0  0  0  0  0  0  0  0
    2.9909  -13.5607   23.1296 H   0  0  0  0  0  0  0  0  0  0  0  0
  1  2  1  0
  2  3  1  0
  3  4  1  0
  4  5  1  0
  5  6  1  0
  6  7  2  0
  6  8  1  0
  8  9  2  0
  9 10  1  0
 10 11  2  0
 11 12  1  0
 12 13  2  0
  3 14  1  0
 14 15  1  0
 15 16  2  0
 15 17  1  0
 17 18  1  0
 18 19  2  0
 19 20  1  0
 20 21  2  0
 21 22  1  0
 13  8  1  0
 22 18  1  0
  1 23  1  0
  1 24  1  0
  1 25  1  0
  2 26  1  0
  2 27  1  0
  3 28  1  0
  4 29  1  0
  4 30  1  0
  5 31  1  0
  9 32  1  0
 11 33  1  0
 12 34  1  0
 14 35  1  0
 17 36  1  0
 17 37  1  0
 19 38  1  0
 21 39  1  0
 22 40  1  0
M  END
>  <Energy>  (968) 
754.01980900889714

>  <compound_id>  (968) 
50850

>  <target_id>  (968) 
1

>  <reference_id>  (968) 
80

>  <inspiration_ids>  (968) 
[80, 54]

>  <energy_score>  (968) 
633.0872475744602

>  <distance_score>  (968) 
13.456622225709337

>  <path>  (968) 
/opt/xchem-fragalysis-2/maxwin/BulkDock/SCRATCH/511021/C50850-P80/C50850-P80.minimised.mol

>  <scratch_subdir>  (968) 
/opt/xchem-fragalysis-2/maxwin/BulkDock/SCRATCH/511021/C50850-P80

>  <fragmenstein_runtime>  (968) 
42.34281897544861

>  <fragmenstein_outcome>  (968) 
too moved

>  <fragmenstein_mode>  (968) 
expansion

>  <fragmenstein_error>  (968) 


$$$$
C50850-P54
     RDKit          3D

 40 41  0  0  0  0  0  0  0  0999 V2000
   -3.7626  -10.6001   21.0809 C   0  0  0  0  0  0  0  0  0  0  0  0
   -3.6907  -12.0809   20.6889 C   0  0  0  0  0  0  0  0  0  0  0  0
   -3.4369  -12.2095   19.1709 C   0  0  0  0  0  0  0  0  0  0  0  0
   -3.9876  -13.5537   18.5594 C   0  0  0  0  0  0  0  0  0  0  0  0
   -4.9460  -14.3888   19.3086 N   0  0  0  0  0  0  0  0  0  0  0  0
   -6.3211  -14.1535   19.6774 C   0  0  0  0  0  0  0  0  0  0  0  0
   -7.0128  -13.1856   19.5378 O   0  0  0  0  0  0  0  0  0  0  0  0
   -6.9848  -15.3511   20.3702 C   0  0  0  0  0  0  0  0  0  0  0  0
   -8.2559  -15.2477   20.9405 C   0  0  0  0  0  0  0  0  0  0  0  0
   -8.9022  -16.2863   21.5565 N   0  0  0  0  0  0  0  0  0  0  0  0
   -8.2461  -17.4657   21.5249 C   0  0  0  0  0  0  0  0  0  0  0  0
   -6.9708  -17.5774   20.9952 C   0  0  0  0  0  0  0  0  0  0  0  0
   -6.2963  -16.5260   20.4395 N   0  0  0  0  0  0  0  0  0  0  0  0
   -1.9825  -11.9752   18.8600 N   0  0  0  0  0  0  0  0  0  0  0  0
   -1.2471  -10.7331   18.5582 C   0  0  0  0  0  0  0  0  0  0  0  0
   -1.6412   -9.6071   18.4068 O   0  0  0  0  0  0  0  0  0  0  0  0
    0.2900  -11.0389   18.4205 C   0  0  0  0  0  0  0  0  0  0  0  0
    1.2529   -9.8715   18.1415 C   0  0  0  0  0  0  0  0  0  0  0  0
    2.6358   -9.8459   17.9986 C   0  0  0  0  0  0  0  0  0  0  0  0
    3.1091   -8.5783   17.7468 N   0  0  0  0  0  0  0  0  0  0  0  0
    2.0373   -7.8216   17.7229 C   0  0  0  0  0  0  0  0  0  0  0  0
    0.8988   -8.5513   17.9549 N   0  0  0  0  0  0  0  0  0  0  0  0
   -4.6544  -10.1353   20.6467 H   0  0  0  0  0  0  0  0  0  0  0  0
   -2.8947  -10.0378   20.7327 H   0  0  0  0  0  0  0  0  0  0  0  0
   -3.8176  -10.4728   22.1647 H   0  0  0  0  0  0  0  0  0  0  0  0
   -2.9014  -12.5861   21.2545 H   0  0  0  0  0  0  0  0  0  0  0  0
   -4.6488  -12.5264   20.9546 H   0  0  0  0  0  0  0  0  0  0  0  0
   -3.9720  -11.3948   18.6655 H   0  0  0  0  0  0  0  0  0  0  0  0
   -3.1503  -14.2126   18.3043 H   0  0  0  0  0  0  0  0  0  0  0  0
   -4.4823  -13.3078   17.6119 H   0  0  0  0  0  0  0  0  0  0  0  0
   -4.6597  -15.3031   19.6578 H   0  0  0  0  0  0  0  0  0  0  0  0
   -8.8051  -14.3106   20.9107 H   0  0  0  0  0  0  0  0  0  0  0  0
   -8.7801  -18.3224   21.9159 H   0  0  0  0  0  0  0  0  0  0  0  0
   -6.4485  -18.5294   20.9872 H   0  0  0  0  0  0  0  0  0  0  0  0
   -1.3185  -12.7287   19.0017 H   0  0  0  0  0  0  0  0  0  0  0  0
    0.6138  -11.5178   19.3528 H   0  0  0  0  0  0  0  0  0  0  0  0
    0.4031  -11.7642   17.6053 H   0  0  0  0  0  0  0  0  0  0  0  0
    3.3160  -10.6859   18.0657 H   0  0  0  0  0  0  0  0  0  0  0  0
    2.0111   -6.7551   17.5447 H   0  0  0  0  0  0  0  0  0  0  0  0
   -0.0520   -8.1977   17.9778 H   0  0  0  0  0  0  0  0  0  0  0  0
  1  2  1  0
  2  3  1  0
  3  4  1  0
  4  5  1  0
  5  6  1  0
  6  7  2  0
  6  8  1  0
  8  9  2  0
  9 10  1  0
 10 11  2  0
 11 12  1  0
 12 13  2  0
  3 14  1  0
 14 15  1  0
 15 16  2  0
 15 17  1  0
 17 18  1  0
 18 19  2  0
 19 20  1  0
 20 21  2  0
 21 22  1  0
 13  8  1  0
 22 18  1  0
  1 23  1  0
  1 24  1  0
  1 25  1  0
  2 26  1  0
  2 27  1  0
  3 28  1  0
  4 29  1  0
  4 30  1  0
  5 31  1  0
  9 32  1  0
 11 33  1  0
 12 34  1  0
 14 35  1  0
 17 36  1  0
 17 37  1  0
 19 38  1  0
 21 39  1  0
 22 40  1  0
M  END
>  <Energy>  (969) 
116.4390419297184

>  <compound_id>  (969) 
50850

>  <target_id>  (969) 
1

>  <reference_id>  (969) 
54

>  <inspiration_ids>  (969) 
[80, 54]

>  <energy_score>  (969) 
-4.493519504699918

>  <distance_score>  (969) 
13.937059037165756

>  <path>  (969) 
/opt/xchem-fragalysis-2/maxwin/BulkDock/SCRATCH/511021/C50850-P54/C50850-P54.minimised.mol

>  <scratch_subdir>  (969) 
/opt/xchem-fragalysis-2/maxwin/BulkDock/SCRATCH/511021/C50850-P54

>  <fragmenstein_runtime>  (969) 
36.954148292541504

>  <fragmenstein_outcome>  (969) 
too moved

>  <fragmenstein_mode>  (969) 
expansion

>  <fragmenstein_error>  (969) 


$$$$
C51597-P8
     RDKit          3D

 47 49  0  0  0  0  0  0  0  0999 V2000
    6.2911  -15.6057   18.0434 O   0  0  0  0  0  0  0  0  0  0  0  0
    6.5946  -15.7633   16.8723 C   0  0  0  0  0  0  0  0  0  0  0  0
    8.3407  -14.6791   16.4368 C   0  0  0  0  0  0  0  0  0  0  0  0
    9.1822  -12.7591   16.3084 C   0  0  0  0  0  0  0  0  0  0  0  0
   10.7681  -11.4218   16.3786 C   0  0  0  0  0  0  0  0  0  0  0  0
   11.2475   -9.6463   15.8284 N   0  0  0  0  0  0  0  0  0  0  0  0
    9.8868   -9.1474   15.5162 C   0  0  0  0  0  0  0  0  0  0  0  0
    9.7534   -7.6829   15.2757 N   0  0  0  0  0  0  0  0  0  0  0  0
   11.1397   -6.7101   15.7697 C   0  0  0  0  0  0  0  0  0  0  0  0
   11.3814   -5.0526   16.0779 C   0  0  0  0  0  0  0  0  0  0  0  0
   12.4183   -4.4045   16.5983 C   0  0  0  0  0  0  0  0  0  0  0  0
   13.3284   -5.2750   16.2607 C   0  0  0  0  0  0  0  0  0  0  0  0
   13.0077   -6.8423   15.8067 C   0  0  0  0  0  0  0  0  0  0  0  0
   12.1538   -8.0032   16.0634 C   0  0  0  0  0  0  0  0  0  0  0  0
    5.5320  -16.7044   15.6686 N   0  0  0  0  0  0  0  0  0  0  0  0
    3.7172  -17.5174   15.8473 C   0  0  0  0  0  0  0  0  0  0  0  0
    2.1632  -18.2504   17.0436 C   0  0  0  0  0  0  0  0  0  0  0  0
    0.7443  -18.0769   18.5444 C   0  0  0  0  0  0  0  0  0  0  0  0
    0.1804  -17.5394   20.3492 C   0  0  0  0  0  0  0  0  0  0  0  0
   -1.2535  -18.3189   21.8585 S   0  0  0  0  0  0  0  0  0  0  0  0
   -2.5839  -18.5072   20.5919 C   0  0  0  0  0  0  0  0  0  0  0  0
   -2.0796  -17.9700   19.2148 C   0  0  0  0  0  0  0  0  0  0  0  0
   -0.8312  -18.3686   18.3407 N   0  0  0  0  0  0  0  0  0  0  0  0
    8.7870  -15.1738   15.5660 H   0  0  0  0  0  0  0  0  0  0  0  0
    8.9348  -15.0202   17.3018 H   0  0  0  0  0  0  0  0  0  0  0  0
    8.6043  -12.2692   17.1065 H   0  0  0  0  0  0  0  0  0  0  0  0
    8.7500  -12.4525   15.3440 H   0  0  0  0  0  0  0  0  0  0  0  0
   11.0544  -11.2769   17.4255 H   0  0  0  0  0  0  0  0  0  0  0  0
   11.5541  -11.8704   15.7584 H   0  0  0  0  0  0  0  0  0  0  0  0
    9.0812   -9.8692   15.6001 H   0  0  0  0  0  0  0  0  0  0  0  0
   10.6632   -4.3573   15.6173 H   0  0  0  0  0  0  0  0  0  0  0  0
   12.5431   -3.3501   16.7429 H   0  0  0  0  0  0  0  0  0  0  0  0
   14.3404   -4.9014   16.0712 H   0  0  0  0  0  0  0  0  0  0  0  0
   13.9119   -7.1335   15.2113 H   0  0  0  0  0  0  0  0  0  0  0  0
    6.0226  -16.7802   14.7734 H   0  0  0  0  0  0  0  0  0  0  0  0
    3.7635  -18.1958   14.9890 H   0  0  0  0  0  0  0  0  0  0  0  0
    3.2395  -16.5591   15.7807 H   0  0  0  0  0  0  0  0  0  0  0  0
    2.5502  -19.2623   17.2607 H   0  0  0  0  0  0  0  0  0  0  0  0
    1.5246  -18.5770   16.2233 H   0  0  0  0  0  0  0  0  0  0  0  0
    1.1584  -17.1228   18.5682 H   0  0  0  0  0  0  0  0  0  0  0  0
   -0.0921  -16.5028   20.3402 H   0  0  0  0  0  0  0  0  0  0  0  0
    0.8389  -17.7770   21.1603 H   0  0  0  0  0  0  0  0  0  0  0  0
   -3.4667  -17.9419   20.9081 H   0  0  0  0  0  0  0  0  0  0  0  0
   -2.8938  -19.5544   20.5341 H   0  0  0  0  0  0  0  0  0  0  0  0
   -2.0916  -16.8759   19.3108 H   0  0  0  0  0  0  0  0  0  0  0  0
   -2.9383  -18.2161   18.5745 H   0  0  0  0  0  0  0  0  0  0  0  0
   -0.7435  -19.3625   18.3346 H   0  0  0  0  0  0  0  0  0  0  0  0
  1  2  2  0
  2  3  1  0
  3  4  1  0
  4  5  1  0
  5  6  1  0
  6  7  1  0
  7  8  2  0
  8  9  1  0
  9 10  2  0
 10 11  1  0
 11 12  2  0
 12 13  1  0
 13 14  2  0
  2 15  1  0
 15 16  1  0
 16 17  1  0
 17 18  1  0
 18 19  1  0
 19 20  1  0
 20 21  1  0
 21 22  1  0
 22 23  1  0
 14  6  1  0
 23 18  1  0
 14  9  1  0
  3 24  1  0
  3 25  1  0
  4 26  1  0
  4 27  1  0
  5 28  1  0
  5 29  1  0
  7 30  1  0
 10 31  1  0
 11 32  1  0
 12 33  1  0
 13 34  1  0
 15 35  1  0
 16 36  1  0
 16 37  1  0
 17 38  1  0
 17 39  1  0
 18 40  1  0
 19 41  1  0
 19 42  1  0
 21 43  1  0
 21 44  1  0
 22 45  1  0
 22 46  1  0
 23 47  1  0
M  END
>  <Energy>  (970) 
1362.2700803724058

>  <compound_id>  (970) 
51597

>  <target_id>  (970) 
1

>  <reference_id>  (970) 
8

>  <inspiration_ids>  (970) 
[8, 9]

>  <energy_score>  (970) 
1292.2689707886216

>  <distance_score>  (970) 
11.737636088677494

>  <path>  (970) 
/opt/xchem-fragalysis-2/maxwin/BulkDock/SCRATCH/511021/C51597-P8/C51597-P8.minimised.mol

>  <scratch_subdir>  (970) 
/opt/xchem-fragalysis-2/maxwin/BulkDock/SCRATCH/511021/C51597-P8

>  <fragmenstein_runtime>  (970) 
17.668684244155884

>  <fragmenstein_outcome>  (970) 
too moved

>  <fragmenstein_mode>  (970) 
expansion

>  <fragmenstein_error>  (970) 


$$$$
C51597-P9
     RDKit          3D

 47 49  0  0  0  0  0  0  0  0999 V2000
    1.6473  -12.5114   14.4580 O   0  0  0  0  0  0  0  0  0  0  0  0
    1.8673  -12.6284   15.6994 C   0  0  0  0  0  0  0  0  0  0  0  0
    3.5860  -11.5068   16.2396 C   0  0  0  0  0  0  0  0  0  0  0  0
    5.0568  -10.7792   15.2216 C   0  0  0  0  0  0  0  0  0  0  0  0
    6.7287   -9.9339   15.6632 C   0  0  0  0  0  0  0  0  0  0  0  0
    8.4841  -10.1615   15.6211 N   0  0  0  0  0  0  0  0  0  0  0  0
    9.1707  -11.3551   15.6043 C   0  0  0  0  0  0  0  0  0  0  0  0
   10.4852  -11.2447   15.7483 N   0  0  0  0  0  0  0  0  0  0  0  0
   10.7884   -9.9114   15.8455 C   0  0  0  0  0  0  0  0  0  0  0  0
   12.0512   -9.1512   15.9639 C   0  0  0  0  0  0  0  0  0  0  0  0
   12.4173   -7.4439   16.0970 C   0  0  0  0  0  0  0  0  0  0  0  0
   11.3668   -6.4252   16.0222 C   0  0  0  0  0  0  0  0  0  0  0  0
    9.8694   -7.4046   15.4304 C   0  0  0  0  0  0  0  0  0  0  0  0
    9.6602   -9.1321   15.6195 C   0  0  0  0  0  0  0  0  0  0  0  0
    0.8460  -13.4658   16.9580 N   0  0  0  0  0  0  0  0  0  0  0  0
   -0.7979  -14.2178   16.8393 C   0  0  0  0  0  0  0  0  0  0  0  0
   -2.8068  -14.4356   16.9516 C   0  0  0  0  0  0  0  0  0  0  0  0
   -4.1435  -15.9305   16.6391 C   0  0  0  0  0  0  0  0  0  0  0  0
   -4.3154  -16.6426   14.9672 C   0  0  0  0  0  0  0  0  0  0  0  0
   -6.1905  -16.6536   13.5804 S   0  0  0  0  0  0  0  0  0  0  0  0
   -7.6561  -16.1156   14.8254 C   0  0  0  0  0  0  0  0  0  0  0  0
   -7.2679  -15.7162   16.3345 C   0  0  0  0  0  0  0  0  0  0  0  0
   -5.9211  -15.9021   17.1746 N   0  0  0  0  0  0  0  0  0  0  0  0
    3.3073  -10.5440   16.6924 H   0  0  0  0  0  0  0  0  0  0  0  0
    3.9870  -11.8991   17.2031 H   0  0  0  0  0  0  0  0  0  0  0  0
    4.5492   -9.9764   14.6683 H   0  0  0  0  0  0  0  0  0  0  0  0
    5.3414  -11.5527   14.5019 H   0  0  0  0  0  0  0  0  0  0  0  0
    6.8196  -10.5290   16.5699 H   0  0  0  0  0  0  0  0  0  0  0  0
    6.9096  -10.0918   14.5930 H   0  0  0  0  0  0  0  0  0  0  0  0
    8.6607  -12.2936   15.4678 H   0  0  0  0  0  0  0  0  0  0  0  0
   12.8534   -9.8207   15.6838 H   0  0  0  0  0  0  0  0  0  0  0  0
   13.3411   -7.1005   15.6211 H   0  0  0  0  0  0  0  0  0  0  0  0
   11.5856   -5.3933   15.7435 H   0  0  0  0  0  0  0  0  0  0  0  0
    8.9523   -6.9302   15.0790 H   0  0  0  0  0  0  0  0  0  0  0  0
    1.3195  -13.4594   17.8308 H   0  0  0  0  0  0  0  0  0  0  0  0
   -0.8977  -14.1120   15.7908 H   0  0  0  0  0  0  0  0  0  0  0  0
   -1.0785  -13.3087   17.3775 H   0  0  0  0  0  0  0  0  0  0  0  0
   -3.1263  -14.1065   16.0262 H   0  0  0  0  0  0  0  0  0  0  0  0
   -2.9920  -13.5494   17.5259 H   0  0  0  0  0  0  0  0  0  0  0  0
   -3.7936  -16.7459   17.2775 H   0  0  0  0  0  0  0  0  0  0  0  0
   -3.8790  -17.6131   15.0159 H   0  0  0  0  0  0  0  0  0  0  0  0
   -3.5494  -16.2558   14.3647 H   0  0  0  0  0  0  0  0  0  0  0  0
   -8.3930  -16.9146   14.8342 H   0  0  0  0  0  0  0  0  0  0  0  0
   -8.1443  -15.2628   14.3372 H   0  0  0  0  0  0  0  0  0  0  0  0
   -8.0251  -16.1904   16.9748 H   0  0  0  0  0  0  0  0  0  0  0  0
   -7.5152  -14.6454   16.4142 H   0  0  0  0  0  0  0  0  0  0  0  0
   -6.0435  -14.9614   17.5588 H   0  0  0  0  0  0  0  0  0  0  0  0
  1  2  2  0
  2  3  1  0
  3  4  1  0
  4  5  1  0
  5  6  1  0
  6  7  1  0
  7  8  2  0
  8  9  1  0
  9 10  2  0
 10 11  1  0
 11 12  2  0
 12 13  1  0
 13 14  2  0
  2 15  1  0
 15 16  1  0
 16 17  1  0
 17 18  1  0
 18 19  1  0
 19 20  1  0
 20 21  1  0
 21 22  1  0
 22 23  1  0
 14  6  1  0
 23 18  1  0
 14  9  1  0
  3 24  1  0
  3 25  1  0
  4 26  1  0
  4 27  1  0
  5 28  1  0
  5 29  1  0
  7 30  1  0
 10 31  1  0
 11 32  1  0
 12 33  1  0
 13 34  1  0
 15 35  1  0
 16 36  1  0
 16 37  1  0
 17 38  1  0
 17 39  1  0
 18 40  1  0
 19 41  1  0
 19 42  1  0
 21 43  1  0
 21 44  1  0
 22 45  1  0
 22 46  1  0
 23 47  1  0
M  END
>  <Energy>  (971) 
949.40186472934317

>  <compound_id>  (971) 
51597

>  <target_id>  (971) 
1

>  <reference_id>  (971) 
9

>  <inspiration_ids>  (971) 
[8, 9]

>  <energy_score>  (971) 
879.4007551455459

>  <distance_score>  (971) 
11.902011590218859

>  <path>  (971) 
/opt/xchem-fragalysis-2/maxwin/BulkDock/SCRATCH/511021/C51597-P9/C51597-P9.minimised.mol

>  <scratch_subdir>  (971) 
/opt/xchem-fragalysis-2/maxwin/BulkDock/SCRATCH/511021/C51597-P9

>  <fragmenstein_runtime>  (971) 
22.392406940460205

>  <fragmenstein_outcome>  (971) 
too moved

>  <fragmenstein_mode>  (971) 
expansion

>  <fragmenstein_error>  (971) 


$$$$
C51598-P8
     RDKit          3D

 40 42  0  0  0  0  0  0  0  0999 V2000
    5.7176  -11.7250   13.4177 N   0  0  0  0  0  0  0  0  0  0  0  0
    5.8954  -10.6243   12.3440 C   0  0  0  0  0  0  0  0  0  0  0  0
    4.0115  -11.1848   11.2654 C   0  0  0  0  0  0  0  0  0  0  0  0
    1.9753  -11.8117   11.2238 C   0  0  0  0  0  0  0  0  0  0  0  0
    0.6310  -13.2671   11.6797 N   0  0  0  0  0  0  0  0  0  0  0  0
   -0.8115  -13.8759   11.1621 C   0  0  0  0  0  0  0  0  0  0  0  0
   -1.9337  -15.2505   10.8308 C   0  0  0  0  0  0  0  0  0  0  0  0
   -1.2828  -16.5566   10.8712 N   0  0  0  0  0  0  0  0  0  0  0  0
   -0.1427  -16.4221   11.7732 C   0  0  0  0  0  0  0  0  0  0  0  0
    0.7499  -14.9848   11.8931 C   0  0  0  0  0  0  0  0  0  0  0  0
    7.3838   -8.7592   12.2729 C   0  0  0  0  0  0  0  0  0  0  0  0
    9.0288   -8.0324   11.2357 C   0  0  0  0  0  0  0  0  0  0  0  0
   10.8136   -6.8969   11.3558 C   0  0  0  0  0  0  0  0  0  0  0  0
   11.0072   -5.3048   12.7915 C   0  0  0  0  0  0  0  0  0  0  0  0
   11.4761   -4.0569   13.2395 N   0  0  0  0  0  0  0  0  0  0  0  0
   10.8732   -3.6151   14.4395 C   0  0  0  0  0  0  0  0  0  0  0  0
    9.7262   -4.1673   14.8564 N   0  0  0  0  0  0  0  0  0  0  0  0
    9.3367   -5.5898   14.0141 C   0  0  0  0  0  0  0  0  0  0  0  0
    8.1522   -7.2140   13.3326 C   0  0  0  0  0  0  0  0  0  0  0  0
    6.1458  -11.2916   14.2282 H   0  0  0  0  0  0  0  0  0  0  0  0
    6.2804  -12.5554   13.2745 H   0  0  0  0  0  0  0  0  0  0  0  0
    5.1060  -10.2525   13.2836 H   0  0  0  0  0  0  0  0  0  0  0  0
    3.9077  -10.5517   10.3524 H   0  0  0  0  0  0  0  0  0  0  0  0
    4.1268  -12.2556   10.9288 H   0  0  0  0  0  0  0  0  0  0  0  0
    1.7035  -11.2641   12.1485 H   0  0  0  0  0  0  0  0  0  0  0  0
    1.4187  -10.9190   10.8746 H   0  0  0  0  0  0  0  0  0  0  0  0
   -1.0664  -13.1700   10.4867 H   0  0  0  0  0  0  0  0  0  0  0  0
   -0.3538  -14.5774   10.5256 H   0  0  0  0  0  0  0  0  0  0  0  0
   -2.8972  -15.2249   11.3518 H   0  0  0  0  0  0  0  0  0  0  0  0
   -2.3574  -15.1540    9.8277 H   0  0  0  0  0  0  0  0  0  0  0  0
   -0.9483  -16.8319    9.9530 H   0  0  0  0  0  0  0  0  0  0  0  0
   -0.4715  -16.7665   12.7292 H   0  0  0  0  0  0  0  0  0  0  0  0
    0.5842  -17.1999   11.4919 H   0  0  0  0  0  0  0  0  0  0  0  0
    1.2602  -15.3528   10.9954 H   0  0  0  0  0  0  0  0  0  0  0  0
    1.0501  -14.9742   12.8713 H   0  0  0  0  0  0  0  0  0  0  0  0
    9.0501   -8.4325   10.1819 H   0  0  0  0  0  0  0  0  0  0  0  0
   11.4431   -6.7330   10.4565 H   0  0  0  0  0  0  0  0  0  0  0  0
   12.2699   -3.5835   12.8474 H   0  0  0  0  0  0  0  0  0  0  0  0
   11.3052   -2.7483   14.9191 H   0  0  0  0  0  0  0  0  0  0  0  0
    7.6648   -6.7702   12.4254 H   0  0  0  0  0  0  0  0  0  0  0  0
  1  2  1  0
  2  3  1  0
  3  4  1  0
  4  5  1  0
  5  6  1  0
  6  7  1  0
  7  8  1  0
  8  9  1  0
  9 10  1  0
  2 11  1  0
 11 12  2  0
 12 13  1  0
 13 14  2  0
 14 15  1  0
 15 16  1  0
 16 17  2  0
 17 18  1  0
 18 19  2  0
 10  5  1  0
 19 11  1  0
 18 14  1  0
  1 20  1  0
  1 21  1  0
  2 22  1  0
  3 23  1  0
  3 24  1  0
  4 25  1  0
  4 26  1  0
  6 27  1  0
  6 28  1  0
  7 29  1  0
  7 30  1  0
  8 31  1  0
  9 32  1  0
  9 33  1  0
 10 34  1  0
 10 35  1  0
 12 36  1  0
 13 37  1  0
 15 38  1  0
 16 39  1  0
 19 40  1  0
M  END
>  <Energy>  (972) 
2434.6036333021862

>  <compound_id>  (972) 
51598

>  <target_id>  (972) 
1

>  <reference_id>  (972) 
8

>  <inspiration_ids>  (972) 
[8, 9]

>  <energy_score>  (972) 
2320.8245764214666

>  <distance_score>  (972) 
12.603222745822412

>  <path>  (972) 
/opt/xchem-fragalysis-2/maxwin/BulkDock/SCRATCH/511021/C51598-P8/C51598-P8.minimised.mol

>  <scratch_subdir>  (972) 
/opt/xchem-fragalysis-2/maxwin/BulkDock/SCRATCH/511021/C51598-P8

>  <fragmenstein_runtime>  (972) 
13.068612337112427

>  <fragmenstein_outcome>  (972) 
too moved

>  <fragmenstein_mode>  (972) 
expansion

>  <fragmenstein_error>  (972) 


$$$$
C51598-P9
     RDKit          3D

 40 42  0  0  0  0  0  0  0  0999 V2000
   -0.7292  -18.0451   11.0725 N   0  0  0  0  0  0  0  0  0  0  0  0
    0.0006  -19.1724   11.6876 C   0  0  0  0  0  0  0  0  0  0  0  0
   -0.6573  -20.5541   11.2365 C   0  0  0  0  0  0  0  0  0  0  0  0
   -2.1601  -20.7238   11.6576 C   0  0  0  0  0  0  0  0  0  0  0  0
   -2.8776  -21.9819   11.4220 N   0  0  0  0  0  0  0  0  0  0  0  0
   -2.2904  -23.1975   11.9956 C   0  0  0  0  0  0  0  0  0  0  0  0
   -3.1786  -24.4705   11.8217 C   0  0  0  0  0  0  0  0  0  0  0  0
   -4.5362  -24.1765   11.3137 N   0  0  0  0  0  0  0  0  0  0  0  0
   -4.3782  -23.4622   10.0337 C   0  0  0  0  0  0  0  0  0  0  0  0
   -3.4531  -22.2053   10.0994 C   0  0  0  0  0  0  0  0  0  0  0  0
    1.5450  -18.9638   11.5377 C   0  0  0  0  0  0  0  0  0  0  0  0
    2.4238  -19.4931   12.5152 C   0  0  0  0  0  0  0  0  0  0  0  0
    3.8235  -19.2830   12.5077 C   0  0  0  0  0  0  0  0  0  0  0  0
    4.3362  -18.5656   11.4330 C   0  0  0  0  0  0  0  0  0  0  0  0
    5.6130  -18.3690   10.9806 N   0  0  0  0  0  0  0  0  0  0  0  0
    5.5357  -17.6546    9.8210 C   0  0  0  0  0  0  0  0  0  0  0  0
    4.2942  -17.3318    9.5344 N   0  0  0  0  0  0  0  0  0  0  0  0
    3.5274  -17.9650   10.4768 C   0  0  0  0  0  0  0  0  0  0  0  0
    2.1264  -18.1457   10.5325 C   0  0  0  0  0  0  0  0  0  0  0  0
   -0.2678  -17.1889   11.3886 H   0  0  0  0  0  0  0  0  0  0  0  0
   -1.6675  -18.0067   11.4627 H   0  0  0  0  0  0  0  0  0  0  0  0
   -0.1857  -19.0871   12.7676 H   0  0  0  0  0  0  0  0  0  0  0  0
   -0.5681  -20.6587   10.1483 H   0  0  0  0  0  0  0  0  0  0  0  0
   -0.0674  -21.3630   11.6837 H   0  0  0  0  0  0  0  0  0  0  0  0
   -2.7442  -19.9150   11.2026 H   0  0  0  0  0  0  0  0  0  0  0  0
   -2.2099  -20.5308   12.7375 H   0  0  0  0  0  0  0  0  0  0  0  0
   -2.1203  -23.0403   13.0675 H   0  0  0  0  0  0  0  0  0  0  0  0
   -1.3138  -23.3981   11.5388 H   0  0  0  0  0  0  0  0  0  0  0  0
   -3.2654  -24.9857   12.7843 H   0  0  0  0  0  0  0  0  0  0  0  0
   -2.6845  -25.1717   11.1376 H   0  0  0  0  0  0  0  0  0  0  0  0
   -4.8775  -23.4677   11.9854 H   0  0  0  0  0  0  0  0  0  0  0  0
   -3.9845  -24.1587    9.2828 H   0  0  0  0  0  0  0  0  0  0  0  0
   -5.3676  -23.1647    9.6795 H   0  0  0  0  0  0  0  0  0  0  0  0
   -2.6538  -22.3106    9.3557 H   0  0  0  0  0  0  0  0  0  0  0  0
   -4.0506  -21.3320    9.8131 H   0  0  0  0  0  0  0  0  0  0  0  0
    2.0051  -20.0760   13.3351 H   0  0  0  0  0  0  0  0  0  0  0  0
    4.4565  -19.7341   13.2626 H   0  0  0  0  0  0  0  0  0  0  0  0
    6.4544  -18.7296   11.4062 H   0  0  0  0  0  0  0  0  0  0  0  0
    6.4022  -17.3964    9.2254 H   0  0  0  0  0  0  0  0  0  0  0  0
    1.5133  -17.6894    9.7634 H   0  0  0  0  0  0  0  0  0  0  0  0
  1  2  1  0
  2  3  1  0
  3  4  1  0
  4  5  1  0
  5  6  1  0
  6  7  1  0
  7  8  1  0
  8  9  1  0
  9 10  1  0
  2 11  1  0
 11 12  2  0
 12 13  1  0
 13 14  2  0
 14 15  1  0
 15 16  1  0
 16 17  2  0
 17 18  1  0
 18 19  2  0
 10  5  1  0
 19 11  1  0
 18 14  1  0
  1 20  1  0
  1 21  1  0
  2 22  1  0
  3 23  1  0
  3 24  1  0
  4 25  1  0
  4 26  1  0
  6 27  1  0
  6 28  1  0
  7 29  1  0
  7 30  1  0
  8 31  1  0
  9 32  1  0
  9 33  1  0
 10 34  1  0
 10 35  1  0
 12 36  1  0
 13 37  1  0
 15 38  1  0
 16 39  1  0
 19 40  1  0
M  END
>  <Energy>  (973) 
91.810372411538609

>  <compound_id>  (973) 
51598

>  <target_id>  (973) 
1

>  <reference_id>  (973) 
9

>  <inspiration_ids>  (973) 
[8, 9]

>  <energy_score>  (973) 
-21.96868446918465

>  <distance_score>  (973) 
16.051530713981265

>  <path>  (973) 
/opt/xchem-fragalysis-2/maxwin/BulkDock/SCRATCH/511021/C51598-P9/C51598-P9.minimised.mol

>  <scratch_subdir>  (973) 
/opt/xchem-fragalysis-2/maxwin/BulkDock/SCRATCH/511021/C51598-P9

>  <fragmenstein_runtime>  (973) 
15.957438230514526

>  <fragmenstein_outcome>  (973) 
too moved

>  <fragmenstein_mode>  (973) 
expansion

>  <fragmenstein_error>  (973) 


$$$$
C51606-P8
     RDKit          3D

 38 41  0  0  0  0  0  0  0  0999 V2000
   -4.1268  -12.4116   12.9871 O   0  0  0  0  0  0  0  0  0  0  0  0
   -3.3967  -13.2792   13.3612 C   0  0  0  0  0  0  0  0  0  0  0  0
   -4.1857  -14.7626   13.1448 N   0  0  0  0  0  0  0  0  0  0  0  0
   -5.9736  -15.2578   12.5387 C   0  0  0  0  0  0  0  0  0  0  0  0
   -6.7521  -16.4295   13.2433 C   0  0  0  0  0  0  0  0  0  0  0  0
   -8.0243  -16.0373   14.0146 C   0  0  0  0  0  0  0  0  0  0  0  0
   -8.9789  -15.1970   13.1849 C   0  0  0  0  0  0  0  0  0  0  0  0
   -8.3443  -14.3841   12.1482 N   0  0  0  0  0  0  0  0  0  0  0  0
   -8.1327  -15.1231   10.9315 C   0  0  0  0  0  0  0  0  0  0  0  0
   -6.6300  -15.4633   10.9377 C   0  0  0  0  0  0  0  0  0  0  0  0
   -6.9505  -13.9825   12.4762 C   0  0  0  0  0  0  0  0  0  0  0  0
   -1.2408  -12.2692   13.8540 C   0  0  0  0  0  0  0  0  0  0  0  0
    0.6790  -12.1688   13.4003 C   0  0  0  0  0  0  0  0  0  0  0  0
    2.1996  -10.7341   13.6082 C   0  0  0  0  0  0  0  0  0  0  0  0
    2.6245   -9.9871   11.5548 Br  0  0  0  0  0  0  0  0  0  0  0  0
    2.2493   -8.9324   14.7076 C   0  0  0  0  0  0  0  0  0  0  0  0
    0.3222   -8.8550   15.5326 C   0  0  0  0  0  0  0  0  0  0  0  0
   -0.5511   -7.7947   15.7709 N   0  0  0  0  0  0  0  0  0  0  0  0
   -1.8506   -8.1470   15.4876 C   0  0  0  0  0  0  0  0  0  0  0  0
   -2.1534   -9.3404   14.9916 N   0  0  0  0  0  0  0  0  0  0  0  0
   -0.9933  -10.3050   14.6497 C   0  0  0  0  0  0  0  0  0  0  0  0
   -3.5602  -15.4736   13.5593 H   0  0  0  0  0  0  0  0  0  0  0  0
   -6.0269  -17.0125   13.7658 H   0  0  0  0  0  0  0  0  0  0  0  0
   -7.1282  -17.1516   12.5130 H   0  0  0  0  0  0  0  0  0  0  0  0
   -7.7924  -15.4880   14.9320 H   0  0  0  0  0  0  0  0  0  0  0  0
   -8.5573  -16.9268   14.3528 H   0  0  0  0  0  0  0  0  0  0  0  0
   -9.5087  -14.5175   13.8648 H   0  0  0  0  0  0  0  0  0  0  0  0
   -9.7697  -15.8277   12.7584 H   0  0  0  0  0  0  0  0  0  0  0  0
   -8.7625  -16.0166   10.8345 H   0  0  0  0  0  0  0  0  0  0  0  0
   -8.3585  -14.4918   10.0634 H   0  0  0  0  0  0  0  0  0  0  0  0
   -6.1540  -14.8736   10.1505 H   0  0  0  0  0  0  0  0  0  0  0  0
   -6.7381  -16.4742   10.5637 H   0  0  0  0  0  0  0  0  0  0  0  0
   -6.6442  -13.2509   11.7157 H   0  0  0  0  0  0  0  0  0  0  0  0
   -7.0017  -13.3504   13.2941 H   0  0  0  0  0  0  0  0  0  0  0  0
    0.5109  -12.4640   12.3134 H   0  0  0  0  0  0  0  0  0  0  0  0
    2.5487   -7.9589   14.2730 H   0  0  0  0  0  0  0  0  0  0  0  0
   -0.2547   -6.8677   16.0367 H   0  0  0  0  0  0  0  0  0  0  0  0
   -2.6233   -7.4092   15.6690 H   0  0  0  0  0  0  0  0  0  0  0  0
  1  2  2  0
  2  3  1  0
  3  4  1  0
  4  5  1  0
  5  6  1  0
  6  7  1  0
  7  8  1  0
  8  9  1  0
  9 10  1  0
  8 11  1  0
  2 12  1  0
 12 13  2  0
 13 14  1  0
 14 15  1  0
 14 16  2  0
 16 17  1  0
 17 18  1  0
 18 19  1  0
 19 20  2  0
 20 21  1  0
 10  4  1  0
 21 12  1  0
 11  4  1  0
 21 17  2  0
  3 22  1  0
  5 23  1  0
  5 24  1  0
  6 25  1  0
  6 26  1  0
  7 27  1  0
  7 28  1  0
  9 29  1  0
  9 30  1  0
 10 31  1  0
 10 32  1  0
 11 33  1  0
 11 34  1  0
 13 35  1  0
 16 36  1  0
 18 37  1  0
 19 38  1  0
M  END
>  <Energy>  (974) 
1839.535131211913

>  <compound_id>  (974) 
51606

>  <target_id>  (974) 
1

>  <reference_id>  (974) 
8

>  <inspiration_ids>  (974) 
[8, 9]

>  <energy_score>  (974) 
1752.1576859421762

>  <distance_score>  (974) 
14.632758750004902

>  <path>  (974) 
/opt/xchem-fragalysis-2/maxwin/BulkDock/SCRATCH/511021/C51606-P8/C51606-P8.minimised.mol

>  <scratch_subdir>  (974) 
/opt/xchem-fragalysis-2/maxwin/BulkDock/SCRATCH/511021/C51606-P8

>  <fragmenstein_runtime>  (974) 
16.855676651000977

>  <fragmenstein_outcome>  (974) 
too moved

>  <fragmenstein_mode>  (974) 
expansion

>  <fragmenstein_error>  (974) 


$$$$
C51606-P9
     RDKit          3D

 38 41  0  0  0  0  0  0  0  0999 V2000
   -8.7016  -14.2340   13.3371 O   0  0  0  0  0  0  0  0  0  0  0  0
   -7.8250  -14.6579   12.6274 C   0  0  0  0  0  0  0  0  0  0  0  0
   -7.2109  -16.0408   12.5446 N   0  0  0  0  0  0  0  0  0  0  0  0
   -7.5789  -17.3390   13.2578 C   0  0  0  0  0  0  0  0  0  0  0  0
   -8.0974  -18.9008   12.1366 C   0  0  0  0  0  0  0  0  0  0  0  0
   -8.0843  -20.8269   12.6635 C   0  0  0  0  0  0  0  0  0  0  0  0
   -8.0961  -21.3436   14.5927 C   0  0  0  0  0  0  0  0  0  0  0  0
   -7.1883  -19.9267   15.5300 N   0  0  0  0  0  0  0  0  0  0  0  0
   -8.2451  -18.4252   16.4567 C   0  0  0  0  0  0  0  0  0  0  0  0
   -8.3615  -17.0590   15.0580 C   0  0  0  0  0  0  0  0  0  0  0  0
   -6.6581  -18.5208   13.9249 C   0  0  0  0  0  0  0  0  0  0  0  0
   -7.3770  -13.5541   11.5698 C   0  0  0  0  0  0  0  0  0  0  0  0
   -7.4430  -13.9279   10.2158 C   0  0  0  0  0  0  0  0  0  0  0  0
   -7.2429  -13.0084    9.1675 C   0  0  0  0  0  0  0  0  0  0  0  0
   -7.3671  -13.6417    7.3809 Br  0  0  0  0  0  0  0  0  0  0  0  0
   -6.9813  -11.6481    9.3664 C   0  0  0  0  0  0  0  0  0  0  0  0
   -6.8224  -11.2525   10.6897 C   0  0  0  0  0  0  0  0  0  0  0  0
   -6.3265  -10.0598   11.1899 N   0  0  0  0  0  0  0  0  0  0  0  0
   -6.2438  -10.1947   12.5283 C   0  0  0  0  0  0  0  0  0  0  0  0
   -6.7295  -11.3619   12.8858 N   0  0  0  0  0  0  0  0  0  0  0  0
   -7.0202  -12.1315   11.7817 C   0  0  0  0  0  0  0  0  0  0  0  0
   -6.5512  -16.0669   11.7769 H   0  0  0  0  0  0  0  0  0  0  0  0
   -7.4371  -18.8815   11.2640 H   0  0  0  0  0  0  0  0  0  0  0  0
   -9.0854  -18.6717   11.7636 H   0  0  0  0  0  0  0  0  0  0  0  0
   -8.9437  -21.3244   12.2186 H   0  0  0  0  0  0  0  0  0  0  0  0
   -7.1193  -21.1961   12.2967 H   0  0  0  0  0  0  0  0  0  0  0  0
   -7.6428  -22.2446   14.9311 H   0  0  0  0  0  0  0  0  0  0  0  0
   -9.1180  -21.3950   15.0159 H   0  0  0  0  0  0  0  0  0  0  0  0
   -7.7616  -18.1255   17.3903 H   0  0  0  0  0  0  0  0  0  0  0  0
   -9.2494  -18.8189   16.6892 H   0  0  0  0  0  0  0  0  0  0  0  0
   -9.4348  -16.8829   14.8967 H   0  0  0  0  0  0  0  0  0  0  0  0
   -7.9084  -16.1503   15.4688 H   0  0  0  0  0  0  0  0  0  0  0  0
   -5.7102  -17.9604   14.0142 H   0  0  0  0  0  0  0  0  0  0  0  0
   -6.2249  -19.1449   13.0580 H   0  0  0  0  0  0  0  0  0  0  0  0
   -7.7023  -14.9562    9.9715 H   0  0  0  0  0  0  0  0  0  0  0  0
   -6.8215  -10.9677    8.5372 H   0  0  0  0  0  0  0  0  0  0  0  0
   -6.0467   -9.2529   10.6509 H   0  0  0  0  0  0  0  0  0  0  0  0
   -5.8588   -9.4326   13.1930 H   0  0  0  0  0  0  0  0  0  0  0  0
  1  2  2  0
  2  3  1  0
  3  4  1  0
  4  5  1  0
  5  6  1  0
  6  7  1  0
  7  8  1  0
  8  9  1  0
  9 10  1  0
  8 11  1  0
  2 12  1  0
 12 13  2  0
 13 14  1  0
 14 15  1  0
 14 16  2  0
 16 17  1  0
 17 18  1  0
 18 19  1  0
 19 20  2  0
 20 21  1  0
 10  4  1  0
 21 12  1  0
 11  4  1  0
 21 17  2  0
  3 22  1  0
  5 23  1  0
  5 24  1  0
  6 25  1  0
  6 26  1  0
  7 27  1  0
  7 28  1  0
  9 29  1  0
  9 30  1  0
 10 31  1  0
 10 32  1  0
 11 33  1  0
 11 34  1  0
 13 35  1  0
 16 36  1  0
 18 37  1  0
 19 38  1  0
M  END
>  <Energy>  (975) 
661.72599139400245

>  <compound_id>  (975) 
51606

>  <target_id>  (975) 
1

>  <reference_id>  (975) 
9

>  <inspiration_ids>  (975) 
[8, 9]

>  <energy_score>  (975) 
574.348546124263

>  <distance_score>  (975) 
17.657377741900156

>  <path>  (975) 
/opt/xchem-fragalysis-2/maxwin/BulkDock/SCRATCH/511021/C51606-P9/C51606-P9.minimised.mol

>  <scratch_subdir>  (975) 
/opt/xchem-fragalysis-2/maxwin/BulkDock/SCRATCH/511021/C51606-P9

>  <fragmenstein_runtime>  (975) 
14.122420072555542

>  <fragmenstein_outcome>  (975) 
too moved

>  <fragmenstein_mode>  (975) 
expansion

>  <fragmenstein_error>  (975) 


$$$$
C51646-P8
     RDKit          3D

 64 67  0  0  0  0  0  0  0  0999 V2000
   -1.4784  -14.1268   15.3209 O   0  0  0  0  0  0  0  0  0  0  0  0
   -1.0625  -14.2657   16.3474 C   0  0  0  0  0  0  0  0  0  0  0  0
    0.7870  -13.6288   16.7325 N   0  0  0  0  0  0  0  0  0  0  0  0
    2.1139  -12.5418   15.5203 C   0  0  0  0  0  0  0  0  0  0  0  0
    4.1192  -11.5190   15.2443 C   0  0  0  0  0  0  0  0  0  0  0  0
    6.0602  -10.6042   14.5045 C   0  0  0  0  0  0  0  0  0  0  0  0
    8.0306   -9.7682   15.3148 N   0  0  0  0  0  0  0  0  0  0  0  0
    9.4294   -8.1934   15.1306 C   0  0  0  0  0  0  0  0  0  0  0  0
    8.5531   -6.8354   14.7236 N   0  0  0  0  0  0  0  0  0  0  0  0
    9.0255   -5.0219   14.5503 C   0  0  0  0  0  0  0  0  0  0  0  0
    8.6198   -3.4623   14.9090 C   0  0  0  0  0  0  0  0  0  0  0  0
    9.3394   -2.2338   14.8288 C   0  0  0  0  0  0  0  0  0  0  0  0
   10.7027   -2.4007   14.5484 C   0  0  0  0  0  0  0  0  0  0  0  0
   11.2539   -3.7140   14.3379 C   0  0  0  0  0  0  0  0  0  0  0  0
   10.5003   -5.0465   14.4996 C   0  0  0  0  0  0  0  0  0  0  0  0
   10.7693   -6.7112   15.3465 N   0  0  0  0  0  0  0  0  0  0  0  0
   12.1371   -5.8973   16.3988 C   0  0  0  0  0  0  0  0  0  0  0  0
   13.6955   -5.1331   16.0443 C   0  0  0  0  0  0  0  0  0  0  0  0
   14.6852   -4.4047   17.0381 C   0  0  0  0  0  0  0  0  0  0  0  0
   14.0278   -3.2767   17.7654 C   0  0  0  0  0  0  0  0  0  0  0  0
   12.6165   -3.2126   17.2564 C   0  0  0  0  0  0  0  0  0  0  0  0
   11.8958   -4.5991   17.4370 C   0  0  0  0  0  0  0  0  0  0  0  0
   -2.0832  -15.1581   17.4669 N   0  0  0  0  0  0  0  0  0  0  0  0
   -3.7570  -16.0702   17.2295 C   0  0  0  0  0  0  0  0  0  0  0  0
   -5.1802  -16.5290   18.0603 C   0  0  0  0  0  0  0  0  0  0  0  0
   -5.7523  -17.9417   17.7755 C   0  0  0  0  0  0  0  0  0  0  0  0
   -4.7127  -18.9210   17.2712 C   0  0  0  0  0  0  0  0  0  0  0  0
   -4.1352  -18.4405   15.9498 C   0  0  0  0  0  0  0  0  0  0  0  0
   -4.0730  -16.8914   15.8493 C   0  0  0  0  0  0  0  0  0  0  0  0
    1.0473  -13.8949   17.6612 H   0  0  0  0  0  0  0  0  0  0  0  0
    2.2109  -13.3061   14.8779 H   0  0  0  0  0  0  0  0  0  0  0  0
    1.3971  -12.2309   14.6907 H   0  0  0  0  0  0  0  0  0  0  0  0
    3.7292  -10.9120   14.4093 H   0  0  0  0  0  0  0  0  0  0  0  0
    3.8850  -10.9620   16.1576 H   0  0  0  0  0  0  0  0  0  0  0  0
    5.4859   -9.7592   14.0675 H   0  0  0  0  0  0  0  0  0  0  0  0
    6.1005  -11.3041   13.6548 H   0  0  0  0  0  0  0  0  0  0  0  0
    8.5919  -10.5187   14.9174 H   0  0  0  0  0  0  0  0  0  0  0  0
    9.4663   -3.7840   15.5012 H   0  0  0  0  0  0  0  0  0  0  0  0
    8.8415   -1.2721   14.8328 H   0  0  0  0  0  0  0  0  0  0  0  0
   11.3271   -1.5269   14.3742 H   0  0  0  0  0  0  0  0  0  0  0  0
   12.2776   -3.7075   14.0101 H   0  0  0  0  0  0  0  0  0  0  0  0
   11.7570   -5.1066   15.8505 H   0  0  0  0  0  0  0  0  0  0  0  0
   14.3290   -5.7640   15.4723 H   0  0  0  0  0  0  0  0  0  0  0  0
   13.4537   -4.2748   15.4414 H   0  0  0  0  0  0  0  0  0  0  0  0
   15.4926   -3.9863   16.4191 H   0  0  0  0  0  0  0  0  0  0  0  0
   15.2133   -5.0264   17.7632 H   0  0  0  0  0  0  0  0  0  0  0  0
   14.5508   -2.3302   17.5895 H   0  0  0  0  0  0  0  0  0  0  0  0
   14.0422   -3.4520   18.8476 H   0  0  0  0  0  0  0  0  0  0  0  0
   12.5889   -2.8084   16.2485 H   0  0  0  0  0  0  0  0  0  0  0  0
   12.1498   -2.4325   17.8091 H   0  0  0  0  0  0  0  0  0  0  0  0
   10.8647   -4.4225   17.3038 H   0  0  0  0  0  0  0  0  0  0  0  0
   12.2068   -4.8761   18.4516 H   0  0  0  0  0  0  0  0  0  0  0  0
   -1.6355  -15.1431   18.3839 H   0  0  0  0  0  0  0  0  0  0  0  0
   -3.4417  -16.7577   18.0357 H   0  0  0  0  0  0  0  0  0  0  0  0
   -5.9977  -15.8448   17.7879 H   0  0  0  0  0  0  0  0  0  0  0  0
   -5.0221  -16.5037   19.1521 H   0  0  0  0  0  0  0  0  0  0  0  0
   -6.2183  -18.3298   18.6892 H   0  0  0  0  0  0  0  0  0  0  0  0
   -6.5629  -17.8392   17.0469 H   0  0  0  0  0  0  0  0  0  0  0  0
   -5.1457  -19.9189   17.1579 H   0  0  0  0  0  0  0  0  0  0  0  0
   -3.9103  -19.0180   18.0126 H   0  0  0  0  0  0  0  0  0  0  0  0
   -3.1520  -18.8974   15.7947 H   0  0  0  0  0  0  0  0  0  0  0  0
   -4.7570  -18.8019   15.1215 H   0  0  0  0  0  0  0  0  0  0  0  0
   -5.0932  -16.6423   15.5437 H   0  0  0  0  0  0  0  0  0  0  0  0
   -3.4494  -16.5881   15.0128 H   0  0  0  0  0  0  0  0  0  0  0  0
  1  2  2  0
  2  3  1  0
  3  4  1  0
  4  5  1  0
  5  6  1  0
  6  7  1  0
  7  8  1  0
  8  9  2  0
  9 10  1  0
 10 11  2  0
 11 12  1  0
 12 13  2  0
 13 14  1  0
 14 15  2  0
 15 16  1  0
 16 17  1  0
 17 18  1  0
 18 19  1  0
 19 20  1  0
 20 21  1  0
 21 22  1  0
  2 23  1  0
 23 24  1  0
 24 25  1  0
 25 26  1  0
 26 27  1  0
 27 28  1  0
 28 29  1  0
 16  8  1  0
 22 17  1  0
 29 24  1  0
 15 10  1  0
  3 30  1  0
  4 31  1  0
  4 32  1  0
  5 33  1  0
  5 34  1  0
  6 35  1  0
  6 36  1  0
  7 37  1  0
 11 38  1  0
 12 39  1  0
 13 40  1  0
 14 41  1  0
 17 42  1  0
 18 43  1  0
 18 44  1  0
 19 45  1  0
 19 46  1  0
 20 47  1  0
 20 48  1  0
 21 49  1  0
 21 50  1  0
 22 51  1  0
 22 52  1  0
 23 53  1  0
 24 54  1  0
 25 55  1  0
 25 56  1  0
 26 57  1  0
 26 58  1  0
 27 59  1  0
 27 60  1  0
 28 61  1  0
 28 62  1  0
 29 63  1  0
 29 64  1  0
M  END
>  <Energy>  (976) 
2232.2059119537853

>  <compound_id>  (976) 
51646

>  <target_id>  (976) 
1

>  <reference_id>  (976) 
8

>  <inspiration_ids>  (976) 
[8, 9]

>  <energy_score>  (976) 
2259.0972410879303

>  <distance_score>  (976) 
8.533067573116304

>  <path>  (976) 
/opt/xchem-fragalysis-2/maxwin/BulkDock/SCRATCH/511021/C51646-P8/C51646-P8.minimised.mol

>  <scratch_subdir>  (976) 
/opt/xchem-fragalysis-2/maxwin/BulkDock/SCRATCH/511021/C51646-P8

>  <fragmenstein_runtime>  (976) 
30.50544500350952

>  <fragmenstein_outcome>  (976) 
too moved

>  <fragmenstein_mode>  (976) 
expansion

>  <fragmenstein_error>  (976) 


$$$$
C51646-P9
     RDKit          3D

 64 67  0  0  0  0  0  0  0  0999 V2000
   -1.5872  -10.6410   17.9087 O   0  0  0  0  0  0  0  0  0  0  0  0
   -1.6552   -9.5722   18.3766 C   0  0  0  0  0  0  0  0  0  0  0  0
   -0.4171   -8.4603   18.5282 N   0  0  0  0  0  0  0  0  0  0  0  0
    1.3051   -8.5964   18.1611 C   0  0  0  0  0  0  0  0  0  0  0  0
    3.1018   -8.0353   17.8557 C   0  0  0  0  0  0  0  0  0  0  0  0
    4.8223   -6.9081   18.2740 C   0  0  0  0  0  0  0  0  0  0  0  0
    6.5658   -6.9672   19.1195 N   0  0  0  0  0  0  0  0  0  0  0  0
    7.4278   -6.2511   20.2501 C   0  0  0  0  0  0  0  0  0  0  0  0
    7.4243   -4.9395   20.3597 N   0  0  0  0  0  0  0  0  0  0  0  0
    8.2101   -4.5365   21.4227 C   0  0  0  0  0  0  0  0  0  0  0  0
    8.1231   -3.4496   22.3075 C   0  0  0  0  0  0  0  0  0  0  0  0
    9.1673   -3.2309   23.2083 C   0  0  0  0  0  0  0  0  0  0  0  0
   10.3497   -3.9478   23.0882 C   0  0  0  0  0  0  0  0  0  0  0  0
   10.4363   -5.0207   22.2068 C   0  0  0  0  0  0  0  0  0  0  0  0
    9.2721   -5.3734   21.5059 C   0  0  0  0  0  0  0  0  0  0  0  0
    8.7287   -6.5792   21.0217 N   0  0  0  0  0  0  0  0  0  0  0  0
    9.1573   -7.7039   21.9122 C   0  0  0  0  0  0  0  0  0  0  0  0
   10.6787   -8.0838   21.9301 C   0  0  0  0  0  0  0  0  0  0  0  0
   11.5118   -8.0437   23.2136 C   0  0  0  0  0  0  0  0  0  0  0  0
   10.7139   -8.2895   24.4663 C   0  0  0  0  0  0  0  0  0  0  0  0
    9.5234   -7.3550   24.5184 C   0  0  0  0  0  0  0  0  0  0  0  0
    8.5674   -7.6246   23.3633 C   0  0  0  0  0  0  0  0  0  0  0  0
   -2.8055   -8.8902   18.9923 N   0  0  0  0  0  0  0  0  0  0  0  0
   -4.1845   -9.3831   19.2948 C   0  0  0  0  0  0  0  0  0  0  0  0
   -4.5042  -10.6958   18.5101 C   0  0  0  0  0  0  0  0  0  0  0  0
   -5.7897  -11.4257   18.9055 C   0  0  0  0  0  0  0  0  0  0  0  0
   -6.8506  -10.4787   19.4331 C   0  0  0  0  0  0  0  0  0  0  0  0
   -6.7018   -9.0813   18.8345 C   0  0  0  0  0  0  0  0  0  0  0  0
   -5.3406   -8.3913   19.1453 C   0  0  0  0  0  0  0  0  0  0  0  0
   -0.7372   -7.6848   19.0313 H   0  0  0  0  0  0  0  0  0  0  0  0
    1.3920   -8.1500   19.1250 H   0  0  0  0  0  0  0  0  0  0  0  0
    1.0254   -8.1310   17.2127 H   0  0  0  0  0  0  0  0  0  0  0  0
    3.4723   -9.0720   18.0105 H   0  0  0  0  0  0  0  0  0  0  0  0
    2.9266   -8.0642   16.7638 H   0  0  0  0  0  0  0  0  0  0  0  0
    4.7004   -5.8427   18.4533 H   0  0  0  0  0  0  0  0  0  0  0  0
    5.2338   -6.6845   17.2795 H   0  0  0  0  0  0  0  0  0  0  0  0
    6.8193   -7.9340   19.2520 H   0  0  0  0  0  0  0  0  0  0  0  0
    7.2533   -2.8009   22.3060 H   0  0  0  0  0  0  0  0  0  0  0  0
    9.1046   -2.4171   23.9279 H   0  0  0  0  0  0  0  0  0  0  0  0
   11.2092   -3.6796   23.6992 H   0  0  0  0  0  0  0  0  0  0  0  0
   11.3624   -5.5646   22.1218 H   0  0  0  0  0  0  0  0  0  0  0  0
    8.6645   -8.5016   21.4057 H   0  0  0  0  0  0  0  0  0  0  0  0
   11.2413   -7.4841   21.2331 H   0  0  0  0  0  0  0  0  0  0  0  0
   10.7564   -9.1161   21.5826 H   0  0  0  0  0  0  0  0  0  0  0  0
   12.0297   -7.0854   23.3144 H   0  0  0  0  0  0  0  0  0  0  0  0
   12.3155   -8.7877   23.1409 H   0  0  0  0  0  0  0  0  0  0  0  0
   11.3480   -8.1339   25.3466 H   0  0  0  0  0  0  0  0  0  0  0  0
   10.3760   -9.3324   24.4981 H   0  0  0  0  0  0  0  0  0  0  0  0
    9.8532   -6.3145   24.5261 H   0  0  0  0  0  0  0  0  0  0  0  0
    8.9879   -7.5087   25.4634 H   0  0  0  0  0  0  0  0  0  0  0  0
    7.7399   -6.9072   23.4227 H   0  0  0  0  0  0  0  0  0  0  0  0
    8.1413   -8.6092   23.5934 H   0  0  0  0  0  0  0  0  0  0  0  0
   -2.5056   -8.0197   19.3640 H   0  0  0  0  0  0  0  0  0  0  0  0
   -4.1481   -9.6539   20.3561 H   0  0  0  0  0  0  0  0  0  0  0  0
   -4.5666  -10.4178   17.4570 H   0  0  0  0  0  0  0  0  0  0  0  0
   -3.6934  -11.4220   18.5915 H   0  0  0  0  0  0  0  0  0  0  0  0
   -5.5717  -12.1797   19.6711 H   0  0  0  0  0  0  0  0  0  0  0  0
   -6.1707  -11.9718   18.0344 H   0  0  0  0  0  0  0  0  0  0  0  0
   -6.7645  -10.4053   20.5244 H   0  0  0  0  0  0  0  0  0  0  0  0
   -7.8485  -10.8798   19.2236 H   0  0  0  0  0  0  0  0  0  0  0  0
   -7.5097   -8.4361   19.1995 H   0  0  0  0  0  0  0  0  0  0  0  0
   -6.8362   -9.1486   17.7490 H   0  0  0  0  0  0  0  0  0  0  0  0
   -5.4348   -7.8276   20.0826 H   0  0  0  0  0  0  0  0  0  0  0  0
   -5.1236   -7.6395   18.3794 H   0  0  0  0  0  0  0  0  0  0  0  0
  1  2  2  0
  2  3  1  0
  3  4  1  0
  4  5  1  0
  5  6  1  0
  6  7  1  0
  7  8  1  0
  8  9  2  0
  9 10  1  0
 10 11  2  0
 11 12  1  0
 12 13  2  0
 13 14  1  0
 14 15  2  0
 15 16  1  0
 16 17  1  0
 17 18  1  0
 18 19  1  0
 19 20  1  0
 20 21  1  0
 21 22  1  0
  2 23  1  0
 23 24  1  0
 24 25  1  0
 25 26  1  0
 26 27  1  0
 27 28  1  0
 28 29  1  0
 16  8  1  0
 22 17  1  0
 29 24  1  0
 15 10  1  0
  3 30  1  0
  4 31  1  0
  4 32  1  0
  5 33  1  0
  5 34  1  0
  6 35  1  0
  6 36  1  0
  7 37  1  0
 11 38  1  0
 12 39  1  0
 13 40  1  0
 14 41  1  0
 17 42  1  0
 18 43  1  0
 18 44  1  0
 19 45  1  0
 19 46  1  0
 20 47  1  0
 20 48  1  0
 21 49  1  0
 21 50  1  0
 22 51  1  0
 22 52  1  0
 23 53  1  0
 24 54  1  0
 25 55  1  0
 25 56  1  0
 26 57  1  0
 26 58  1  0
 27 59  1  0
 27 60  1  0
 28 61  1  0
 28 62  1  0
 29 63  1  0
 29 64  1  0
M  END
>  <Energy>  (977) 
427.80455617262197

>  <compound_id>  (977) 
51646

>  <target_id>  (977) 
1

>  <reference_id>  (977) 
9

>  <inspiration_ids>  (977) 
[8, 9]

>  <energy_score>  (977) 
454.69588530675776

>  <distance_score>  (977) 
13.060772242946692

>  <path>  (977) 
/opt/xchem-fragalysis-2/maxwin/BulkDock/SCRATCH/511021/C51646-P9/C51646-P9.minimised.mol

>  <scratch_subdir>  (977) 
/opt/xchem-fragalysis-2/maxwin/BulkDock/SCRATCH/511021/C51646-P9

>  <fragmenstein_runtime>  (977) 
48.180957555770874

>  <fragmenstein_outcome>  (977) 
too moved

>  <fragmenstein_mode>  (977) 
expansion

>  <fragmenstein_error>  (977) 


$$$$
C51646-P8
     RDKit          3D

 64 67  0  0  0  0  0  0  0  0999 V2000
   -1.4784  -14.1268   15.3209 O   0  0  0  0  0  0  0  0  0  0  0  0
   -1.0625  -14.2657   16.3474 C   0  0  0  0  0  0  0  0  0  0  0  0
    0.7870  -13.6288   16.7325 N   0  0  0  0  0  0  0  0  0  0  0  0
    2.1139  -12.5418   15.5203 C   0  0  0  0  0  0  0  0  0  0  0  0
    4.1192  -11.5190   15.2443 C   0  0  0  0  0  0  0  0  0  0  0  0
    6.0602  -10.6042   14.5045 C   0  0  0  0  0  0  0  0  0  0  0  0
    8.0306   -9.7682   15.3148 N   0  0  0  0  0  0  0  0  0  0  0  0
    9.4294   -8.1934   15.1306 C   0  0  0  0  0  0  0  0  0  0  0  0
    8.5531   -6.8354   14.7236 N   0  0  0  0  0  0  0  0  0  0  0  0
    9.0255   -5.0219   14.5503 C   0  0  0  0  0  0  0  0  0  0  0  0
    8.6198   -3.4623   14.9090 C   0  0  0  0  0  0  0  0  0  0  0  0
    9.3394   -2.2338   14.8288 C   0  0  0  0  0  0  0  0  0  0  0  0
   10.7027   -2.4007   14.5484 C   0  0  0  0  0  0  0  0  0  0  0  0
   11.2539   -3.7140   14.3379 C   0  0  0  0  0  0  0  0  0  0  0  0
   10.5003   -5.0465   14.4996 C   0  0  0  0  0  0  0  0  0  0  0  0
   10.7693   -6.7112   15.3465 N   0  0  0  0  0  0  0  0  0  0  0  0
   12.1371   -5.8973   16.3988 C   0  0  0  0  0  0  0  0  0  0  0  0
   13.6955   -5.1331   16.0443 C   0  0  0  0  0  0  0  0  0  0  0  0
   14.6852   -4.4047   17.0381 C   0  0  0  0  0  0  0  0  0  0  0  0
   14.0278   -3.2767   17.7654 C   0  0  0  0  0  0  0  0  0  0  0  0
   12.6165   -3.2126   17.2564 C   0  0  0  0  0  0  0  0  0  0  0  0
   11.8958   -4.5991   17.4370 C   0  0  0  0  0  0  0  0  0  0  0  0
   -2.0832  -15.1581   17.4669 N   0  0  0  0  0  0  0  0  0  0  0  0
   -3.7570  -16.0702   17.2295 C   0  0  0  0  0  0  0  0  0  0  0  0
   -5.1802  -16.5290   18.0603 C   0  0  0  0  0  0  0  0  0  0  0  0
   -5.7523  -17.9417   17.7755 C   0  0  0  0  0  0  0  0  0  0  0  0
   -4.7127  -18.9210   17.2712 C   0  0  0  0  0  0  0  0  0  0  0  0
   -4.1352  -18.4405   15.9498 C   0  0  0  0  0  0  0  0  0  0  0  0
   -4.0730  -16.8914   15.8493 C   0  0  0  0  0  0  0  0  0  0  0  0
    1.0473  -13.8949   17.6612 H   0  0  0  0  0  0  0  0  0  0  0  0
    2.2109  -13.3061   14.8779 H   0  0  0  0  0  0  0  0  0  0  0  0
    1.3971  -12.2309   14.6907 H   0  0  0  0  0  0  0  0  0  0  0  0
    3.7292  -10.9120   14.4093 H   0  0  0  0  0  0  0  0  0  0  0  0
    3.8850  -10.9620   16.1576 H   0  0  0  0  0  0  0  0  0  0  0  0
    5.4859   -9.7592   14.0675 H   0  0  0  0  0  0  0  0  0  0  0  0
    6.1005  -11.3041   13.6548 H   0  0  0  0  0  0  0  0  0  0  0  0
    8.5919  -10.5187   14.9174 H   0  0  0  0  0  0  0  0  0  0  0  0
    9.4663   -3.7840   15.5012 H   0  0  0  0  0  0  0  0  0  0  0  0
    8.8415   -1.2721   14.8328 H   0  0  0  0  0  0  0  0  0  0  0  0
   11.3271   -1.5269   14.3742 H   0  0  0  0  0  0  0  0  0  0  0  0
   12.2776   -3.7075   14.0101 H   0  0  0  0  0  0  0  0  0  0  0  0
   11.7570   -5.1066   15.8505 H   0  0  0  0  0  0  0  0  0  0  0  0
   14.3290   -5.7640   15.4723 H   0  0  0  0  0  0  0  0  0  0  0  0
   13.4537   -4.2748   15.4414 H   0  0  0  0  0  0  0  0  0  0  0  0
   15.4926   -3.9863   16.4191 H   0  0  0  0  0  0  0  0  0  0  0  0
   15.2133   -5.0264   17.7632 H   0  0  0  0  0  0  0  0  0  0  0  0
   14.5508   -2.3302   17.5895 H   0  0  0  0  0  0  0  0  0  0  0  0
   14.0422   -3.4520   18.8476 H   0  0  0  0  0  0  0  0  0  0  0  0
   12.5889   -2.8084   16.2485 H   0  0  0  0  0  0  0  0  0  0  0  0
   12.1498   -2.4325   17.8091 H   0  0  0  0  0  0  0  0  0  0  0  0
   10.8647   -4.4225   17.3038 H   0  0  0  0  0  0  0  0  0  0  0  0
   12.2068   -4.8761   18.4516 H   0  0  0  0  0  0  0  0  0  0  0  0
   -1.6355  -15.1431   18.3839 H   0  0  0  0  0  0  0  0  0  0  0  0
   -3.4417  -16.7577   18.0357 H   0  0  0  0  0  0  0  0  0  0  0  0
   -5.9977  -15.8448   17.7879 H   0  0  0  0  0  0  0  0  0  0  0  0
   -5.0221  -16.5037   19.1521 H   0  0  0  0  0  0  0  0  0  0  0  0
   -6.2183  -18.3298   18.6892 H   0  0  0  0  0  0  0  0  0  0  0  0
   -6.5629  -17.8392   17.0469 H   0  0  0  0  0  0  0  0  0  0  0  0
   -5.1457  -19.9189   17.1579 H   0  0  0  0  0  0  0  0  0  0  0  0
   -3.9103  -19.0180   18.0126 H   0  0  0  0  0  0  0  0  0  0  0  0
   -3.1520  -18.8974   15.7947 H   0  0  0  0  0  0  0  0  0  0  0  0
   -4.7570  -18.8019   15.1215 H   0  0  0  0  0  0  0  0  0  0  0  0
   -5.0932  -16.6423   15.5437 H   0  0  0  0  0  0  0  0  0  0  0  0
   -3.4494  -16.5881   15.0128 H   0  0  0  0  0  0  0  0  0  0  0  0
  1  2  2  0
  2  3  1  0
  3  4  1  0
  4  5  1  0
  5  6  1  0
  6  7  1  0
  7  8  1  0
  8  9  2  0
  9 10  1  0
 10 11  2  0
 11 12  1  0
 12 13  2  0
 13 14  1  0
 14 15  2  0
 15 16  1  0
 16 17  1  0
 17 18  1  0
 18 19  1  0
 19 20  1  0
 20 21  1  0
 21 22  1  0
  2 23  1  0
 23 24  1  0
 24 25  1  0
 25 26  1  0
 26 27  1  0
 27 28  1  0
 28 29  1  0
 16  8  1  0
 22 17  1  0
 29 24  1  0
 15 10  1  0
  3 30  1  0
  4 31  1  0
  4 32  1  0
  5 33  1  0
  5 34  1  0
  6 35  1  0
  6 36  1  0
  7 37  1  0
 11 38  1  0
 12 39  1  0
 13 40  1  0
 14 41  1  0
 17 42  1  0
 18 43  1  0
 18 44  1  0
 19 45  1  0
 19 46  1  0
 20 47  1  0
 20 48  1  0
 21 49  1  0
 21 50  1  0
 22 51  1  0
 22 52  1  0
 23 53  1  0
 24 54  1  0
 25 55  1  0
 25 56  1  0
 26 57  1  0
 26 58  1  0
 27 59  1  0
 27 60  1  0
 28 61  1  0
 28 62  1  0
 29 63  1  0
 29 64  1  0
M  END
>  <Energy>  (978) 
2232.2059119537853

>  <compound_id>  (978) 
51646

>  <target_id>  (978) 
1

>  <reference_id>  (978) 
8

>  <inspiration_ids>  (978) 
[8, 9]

>  <energy_score>  (978) 
2259.0972410879303

>  <distance_score>  (978) 
8.533067573116304

>  <path>  (978) 
/opt/xchem-fragalysis-2/maxwin/BulkDock/SCRATCH/511021/C51646-P8/C51646-P8.minimised.mol

>  <scratch_subdir>  (978) 
/opt/xchem-fragalysis-2/maxwin/BulkDock/SCRATCH/511021/C51646-P8

>  <fragmenstein_runtime>  (978) 
38.5046751499176

>  <fragmenstein_outcome>  (978) 
too moved

>  <fragmenstein_mode>  (978) 
expansion

>  <fragmenstein_error>  (978) 


$$$$
C51646-P9
     RDKit          3D

 64 67  0  0  0  0  0  0  0  0999 V2000
   -1.5872  -10.6410   17.9087 O   0  0  0  0  0  0  0  0  0  0  0  0
   -1.6552   -9.5722   18.3766 C   0  0  0  0  0  0  0  0  0  0  0  0
   -0.4171   -8.4603   18.5282 N   0  0  0  0  0  0  0  0  0  0  0  0
    1.3051   -8.5964   18.1611 C   0  0  0  0  0  0  0  0  0  0  0  0
    3.1018   -8.0353   17.8557 C   0  0  0  0  0  0  0  0  0  0  0  0
    4.8223   -6.9081   18.2740 C   0  0  0  0  0  0  0  0  0  0  0  0
    6.5658   -6.9672   19.1195 N   0  0  0  0  0  0  0  0  0  0  0  0
    7.4278   -6.2511   20.2501 C   0  0  0  0  0  0  0  0  0  0  0  0
    7.4243   -4.9395   20.3597 N   0  0  0  0  0  0  0  0  0  0  0  0
    8.2101   -4.5365   21.4227 C   0  0  0  0  0  0  0  0  0  0  0  0
    8.1231   -3.4496   22.3075 C   0  0  0  0  0  0  0  0  0  0  0  0
    9.1673   -3.2309   23.2083 C   0  0  0  0  0  0  0  0  0  0  0  0
   10.3497   -3.9478   23.0882 C   0  0  0  0  0  0  0  0  0  0  0  0
   10.4363   -5.0207   22.2068 C   0  0  0  0  0  0  0  0  0  0  0  0
    9.2721   -5.3734   21.5059 C   0  0  0  0  0  0  0  0  0  0  0  0
    8.7287   -6.5792   21.0217 N   0  0  0  0  0  0  0  0  0  0  0  0
    9.1573   -7.7039   21.9122 C   0  0  0  0  0  0  0  0  0  0  0  0
   10.6787   -8.0838   21.9301 C   0  0  0  0  0  0  0  0  0  0  0  0
   11.5118   -8.0437   23.2136 C   0  0  0  0  0  0  0  0  0  0  0  0
   10.7139   -8.2895   24.4663 C   0  0  0  0  0  0  0  0  0  0  0  0
    9.5234   -7.3550   24.5184 C   0  0  0  0  0  0  0  0  0  0  0  0
    8.5674   -7.6246   23.3633 C   0  0  0  0  0  0  0  0  0  0  0  0
   -2.8055   -8.8902   18.9923 N   0  0  0  0  0  0  0  0  0  0  0  0
   -4.1845   -9.3831   19.2948 C   0  0  0  0  0  0  0  0  0  0  0  0
   -4.5042  -10.6958   18.5101 C   0  0  0  0  0  0  0  0  0  0  0  0
   -5.7897  -11.4257   18.9055 C   0  0  0  0  0  0  0  0  0  0  0  0
   -6.8506  -10.4787   19.4331 C   0  0  0  0  0  0  0  0  0  0  0  0
   -6.7018   -9.0813   18.8345 C   0  0  0  0  0  0  0  0  0  0  0  0
   -5.3406   -8.3913   19.1453 C   0  0  0  0  0  0  0  0  0  0  0  0
   -0.7372   -7.6848   19.0313 H   0  0  0  0  0  0  0  0  0  0  0  0
    1.3920   -8.1500   19.1250 H   0  0  0  0  0  0  0  0  0  0  0  0
    1.0254   -8.1310   17.2127 H   0  0  0  0  0  0  0  0  0  0  0  0
    3.4723   -9.0720   18.0105 H   0  0  0  0  0  0  0  0  0  0  0  0
    2.9266   -8.0642   16.7638 H   0  0  0  0  0  0  0  0  0  0  0  0
    4.7004   -5.8427   18.4533 H   0  0  0  0  0  0  0  0  0  0  0  0
    5.2338   -6.6845   17.2795 H   0  0  0  0  0  0  0  0  0  0  0  0
    6.8193   -7.9340   19.2520 H   0  0  0  0  0  0  0  0  0  0  0  0
    7.2533   -2.8009   22.3060 H   0  0  0  0  0  0  0  0  0  0  0  0
    9.1046   -2.4171   23.9279 H   0  0  0  0  0  0  0  0  0  0  0  0
   11.2092   -3.6796   23.6992 H   0  0  0  0  0  0  0  0  0  0  0  0
   11.3624   -5.5646   22.1218 H   0  0  0  0  0  0  0  0  0  0  0  0
    8.6645   -8.5016   21.4057 H   0  0  0  0  0  0  0  0  0  0  0  0
   11.2413   -7.4841   21.2331 H   0  0  0  0  0  0  0  0  0  0  0  0
   10.7564   -9.1161   21.5826 H   0  0  0  0  0  0  0  0  0  0  0  0
   12.0297   -7.0854   23.3144 H   0  0  0  0  0  0  0  0  0  0  0  0
   12.3155   -8.7877   23.1409 H   0  0  0  0  0  0  0  0  0  0  0  0
   11.3480   -8.1339   25.3466 H   0  0  0  0  0  0  0  0  0  0  0  0
   10.3760   -9.3324   24.4981 H   0  0  0  0  0  0  0  0  0  0  0  0
    9.8532   -6.3145   24.5261 H   0  0  0  0  0  0  0  0  0  0  0  0
    8.9879   -7.5087   25.4634 H   0  0  0  0  0  0  0  0  0  0  0  0
    7.7399   -6.9072   23.4227 H   0  0  0  0  0  0  0  0  0  0  0  0
    8.1413   -8.6092   23.5934 H   0  0  0  0  0  0  0  0  0  0  0  0
   -2.5056   -8.0197   19.3640 H   0  0  0  0  0  0  0  0  0  0  0  0
   -4.1481   -9.6539   20.3561 H   0  0  0  0  0  0  0  0  0  0  0  0
   -4.5666  -10.4178   17.4570 H   0  0  0  0  0  0  0  0  0  0  0  0
   -3.6934  -11.4220   18.5915 H   0  0  0  0  0  0  0  0  0  0  0  0
   -5.5717  -12.1797   19.6711 H   0  0  0  0  0  0  0  0  0  0  0  0
   -6.1707  -11.9718   18.0344 H   0  0  0  0  0  0  0  0  0  0  0  0
   -6.7645  -10.4053   20.5244 H   0  0  0  0  0  0  0  0  0  0  0  0
   -7.8485  -10.8798   19.2236 H   0  0  0  0  0  0  0  0  0  0  0  0
   -7.5097   -8.4361   19.1995 H   0  0  0  0  0  0  0  0  0  0  0  0
   -6.8362   -9.1486   17.7490 H   0  0  0  0  0  0  0  0  0  0  0  0
   -5.4348   -7.8276   20.0826 H   0  0  0  0  0  0  0  0  0  0  0  0
   -5.1236   -7.6395   18.3794 H   0  0  0  0  0  0  0  0  0  0  0  0
  1  2  2  0
  2  3  1  0
  3  4  1  0
  4  5  1  0
  5  6  1  0
  6  7  1  0
  7  8  1  0
  8  9  2  0
  9 10  1  0
 10 11  2  0
 11 12  1  0
 12 13  2  0
 13 14  1  0
 14 15  2  0
 15 16  1  0
 16 17  1  0
 17 18  1  0
 18 19  1  0
 19 20  1  0
 20 21  1  0
 21 22  1  0
  2 23  1  0
 23 24  1  0
 24 25  1  0
 25 26  1  0
 26 27  1  0
 27 28  1  0
 28 29  1  0
 16  8  1  0
 22 17  1  0
 29 24  1  0
 15 10  1  0
  3 30  1  0
  4 31  1  0
  4 32  1  0
  5 33  1  0
  5 34  1  0
  6 35  1  0
  6 36  1  0
  7 37  1  0
 11 38  1  0
 12 39  1  0
 13 40  1  0
 14 41  1  0
 17 42  1  0
 18 43  1  0
 18 44  1  0
 19 45  1  0
 19 46  1  0
 20 47  1  0
 20 48  1  0
 21 49  1  0
 21 50  1  0
 22 51  1  0
 22 52  1  0
 23 53  1  0
 24 54  1  0
 25 55  1  0
 25 56  1  0
 26 57  1  0
 26 58  1  0
 27 59  1  0
 27 60  1  0
 28 61  1  0
 28 62  1  0
 29 63  1  0
 29 64  1  0
M  END
>  <Energy>  (979) 
427.80455617262197

>  <compound_id>  (979) 
51646

>  <target_id>  (979) 
1

>  <reference_id>  (979) 
9

>  <inspiration_ids>  (979) 
[8, 9]

>  <energy_score>  (979) 
454.69588530675776

>  <distance_score>  (979) 
13.060772242946692

>  <path>  (979) 
/opt/xchem-fragalysis-2/maxwin/BulkDock/SCRATCH/511021/C51646-P9/C51646-P9.minimised.mol

>  <scratch_subdir>  (979) 
/opt/xchem-fragalysis-2/maxwin/BulkDock/SCRATCH/511021/C51646-P9

>  <fragmenstein_runtime>  (979) 
44.20879077911377

>  <fragmenstein_outcome>  (979) 
too moved

>  <fragmenstein_mode>  (979) 
expansion

>  <fragmenstein_error>  (979) 


$$$$
C9234-P8
     RDKit          3D

 48 51  0  0  0  0  0  0  0  0999 V2000
   -9.2416  -20.5756   23.6032 O   0  0  0  0  0  0  0  0  0  0  0  0
   -8.8957  -20.0213   22.5787 C   0  0  0  0  0  0  0  0  0  0  0  0
   -9.9451  -20.2468   21.2646 C   0  0  0  0  0  0  0  0  0  0  0  0
  -11.3511  -21.7148   21.7387 S   0  0  0  0  0  0  0  0  0  0  0  0
  -12.5933  -22.5214   20.2549 C   0  0  0  0  0  0  0  0  0  0  0  0
  -13.1140  -24.2142   19.5958 C   0  0  0  0  0  0  0  0  0  0  0  0
  -13.7562  -24.8851   18.1569 N   0  0  0  0  0  0  0  0  0  0  0  0
  -12.9828  -25.7997   17.2250 C   0  0  0  0  0  0  0  0  0  0  0  0
  -14.0092  -26.4547   16.3339 C   0  0  0  0  0  0  0  0  0  0  0  0
  -14.9863  -25.3235   16.1202 C   0  0  0  0  0  0  0  0  0  0  0  0
  -14.6179  -24.2449   17.1639 C   0  0  0  0  0  0  0  0  0  0  0  0
   -7.6377  -19.2572   22.2677 N   0  0  0  0  0  0  0  0  0  0  0  0
   -7.7629  -17.6651   22.5995 C   0  0  0  0  0  0  0  0  0  0  0  0
   -6.1983  -17.5765   22.6304 C   0  0  0  0  0  0  0  0  0  0  0  0
   -5.2981  -16.5847   23.6900 C   0  0  0  0  0  0  0  0  0  0  0  0
   -5.5495  -15.3267   24.0292 N   0  0  0  0  0  0  0  0  0  0  0  0
   -4.4856  -14.8786   24.8220 C   0  0  0  0  0  0  0  0  0  0  0  0
   -4.2409  -13.6383   25.4546 C   0  0  0  0  0  0  0  0  0  0  0  0
   -3.0392  -13.4366   26.1640 C   0  0  0  0  0  0  0  0  0  0  0  0
   -2.0671  -14.4365   26.2181 C   0  0  0  0  0  0  0  0  0  0  0  0
   -2.2977  -15.6816   25.6145 C   0  0  0  0  0  0  0  0  0  0  0  0
   -3.5276  -15.8720   24.9427 C   0  0  0  0  0  0  0  0  0  0  0  0
   -4.0794  -16.9471   24.2526 N   0  0  0  0  0  0  0  0  0  0  0  0
   -6.3661  -19.0323   23.1044 C   0  0  0  0  0  0  0  0  0  0  0  0
  -10.4980  -19.3278   21.0686 H   0  0  0  0  0  0  0  0  0  0  0  0
   -9.3640  -20.6197   20.4223 H   0  0  0  0  0  0  0  0  0  0  0  0
  -12.9615  -21.7015   19.6386 H   0  0  0  0  0  0  0  0  0  0  0  0
  -13.2771  -22.5595   21.1077 H   0  0  0  0  0  0  0  0  0  0  0  0
  -12.2242  -24.7166   19.8437 H   0  0  0  0  0  0  0  0  0  0  0  0
  -13.7709  -24.6427   20.3659 H   0  0  0  0  0  0  0  0  0  0  0  0
  -12.2063  -26.4270   17.6465 H   0  0  0  0  0  0  0  0  0  0  0  0
  -12.3817  -25.2586   16.4990 H   0  0  0  0  0  0  0  0  0  0  0  0
  -14.4989  -27.3096   16.8018 H   0  0  0  0  0  0  0  0  0  0  0  0
  -13.5785  -26.7986   15.3878 H   0  0  0  0  0  0  0  0  0  0  0  0
  -14.9104  -24.9153   15.1062 H   0  0  0  0  0  0  0  0  0  0  0  0
  -16.0122  -25.6818   16.2632 H   0  0  0  0  0  0  0  0  0  0  0  0
  -15.5779  -23.8728   17.4780 H   0  0  0  0  0  0  0  0  0  0  0  0
  -14.1145  -23.4481   16.6361 H   0  0  0  0  0  0  0  0  0  0  0  0
   -8.2977  -17.5053   23.5424 H   0  0  0  0  0  0  0  0  0  0  0  0
   -8.2495  -17.1493   21.7678 H   0  0  0  0  0  0  0  0  0  0  0  0
   -5.7522  -17.4928   21.6313 H   0  0  0  0  0  0  0  0  0  0  0  0
   -4.9857  -12.8505   25.3826 H   0  0  0  0  0  0  0  0  0  0  0  0
   -2.8772  -12.4878   26.6701 H   0  0  0  0  0  0  0  0  0  0  0  0
   -1.1435  -14.2642   26.7661 H   0  0  0  0  0  0  0  0  0  0  0  0
   -1.5646  -16.4800   25.6924 H   0  0  0  0  0  0  0  0  0  0  0  0
   -3.6342  -17.8442   24.1193 H   0  0  0  0  0  0  0  0  0  0  0  0
   -5.5663  -19.7090   22.7871 H   0  0  0  0  0  0  0  0  0  0  0  0
   -6.5589  -19.1866   24.1738 H   0  0  0  0  0  0  0  0  0  0  0  0
  1  2  2  0
  2  3  1  0
  3  4  1  0
  4  5  1  0
  5  6  1  0
  6  7  1  0
  7  8  1  0
  8  9  1  0
  9 10  1  0
 10 11  1  0
  2 12  1  0
 12 13  1  0
 13 14  1  0
 14 15  1  0
 15 16  2  0
 16 17  1  0
 17 18  2  0
 18 19  1  0
 19 20  2  0
 20 21  1  0
 21 22  2  0
 22 23  1  0
 14 24  1  0
 11  7  1  0
 24 12  1  0
 23 15  1  0
 22 17  1  0
  3 25  1  0
  3 26  1  0
  5 27  1  0
  5 28  1  0
  6 29  1  0
  6 30  1  0
  8 31  1  0
  8 32  1  0
  9 33  1  0
  9 34  1  0
 10 35  1  0
 10 36  1  0
 11 37  1  0
 11 38  1  0
 13 39  1  0
 13 40  1  0
 14 41  1  0
 18 42  1  0
 19 43  1  0
 20 44  1  0
 21 45  1  0
 23 46  1  0
 24 47  1  0
 24 48  1  0
M  END
>  <Energy>  (980) 
266.63998128160216

>  <compound_id>  (980) 
9234

>  <target_id>  (980) 
1

>  <reference_id>  (980) 
8

>  <inspiration_ids>  (980) 
[8, 9]

>  <energy_score>  (980) 
150.78961303181597

>  <distance_score>  (980) 
16.829561600782533

>  <path>  (980) 
/opt/xchem-fragalysis-2/maxwin/BulkDock/SCRATCH/511021/C9234-P8/C9234-P8.minimised.mol

>  <scratch_subdir>  (980) 
/opt/xchem-fragalysis-2/maxwin/BulkDock/SCRATCH/511021/C9234-P8

>  <fragmenstein_runtime>  (980) 
33.299967765808105

>  <fragmenstein_outcome>  (980) 
too moved

>  <fragmenstein_mode>  (980) 
expansion

>  <fragmenstein_error>  (980) 


$$$$
C9234-P9
     RDKit          3D

 48 51  0  0  0  0  0  0  0  0999 V2000
   -0.9861  -13.6081   17.3303 O   0  0  0  0  0  0  0  0  0  0  0  0
   -2.1195  -13.1630   17.3962 C   0  0  0  0  0  0  0  0  0  0  0  0
   -3.3353  -14.4251   16.7293 C   0  0  0  0  0  0  0  0  0  0  0  0
   -3.9943  -16.6420   16.8198 S   0  0  0  0  0  0  0  0  0  0  0  0
   -5.4631  -17.4188   15.7654 C   0  0  0  0  0  0  0  0  0  0  0  0
   -5.7082  -18.9782   16.1245 C   0  0  0  0  0  0  0  0  0  0  0  0
   -6.0550  -20.1168   15.2233 N   0  0  0  0  0  0  0  0  0  0  0  0
   -7.0687  -21.0508   15.8185 C   0  0  0  0  0  0  0  0  0  0  0  0
   -7.9591  -21.7674   14.6801 C   0  0  0  0  0  0  0  0  0  0  0  0
   -7.2373  -21.4258   13.1015 C   0  0  0  0  0  0  0  0  0  0  0  0
   -5.8151  -20.4041   13.6982 C   0  0  0  0  0  0  0  0  0  0  0  0
   -2.5702  -11.6046   18.0978 N   0  0  0  0  0  0  0  0  0  0  0  0
   -2.7105   -9.9635   17.3405 C   0  0  0  0  0  0  0  0  0  0  0  0
   -1.3336   -9.2723   18.0944 C   0  0  0  0  0  0  0  0  0  0  0  0
    0.5320   -8.5697   17.6890 C   0  0  0  0  0  0  0  0  0  0  0  0
    1.6831   -8.5664   18.4309 N   0  0  0  0  0  0  0  0  0  0  0  0
    2.8664   -8.0991   17.7050 C   0  0  0  0  0  0  0  0  0  0  0  0
    4.3150   -7.1177   18.1813 C   0  0  0  0  0  0  0  0  0  0  0  0
    5.1753   -6.1541   17.7557 C   0  0  0  0  0  0  0  0  0  0  0  0
    4.8284   -6.0259   16.4865 C   0  0  0  0  0  0  0  0  0  0  0  0
    3.5927   -6.6892   15.5508 C   0  0  0  0  0  0  0  0  0  0  0  0
    2.5414   -7.9144   16.3131 C   0  0  0  0  0  0  0  0  0  0  0  0
    0.9788   -7.9840   16.5036 N   0  0  0  0  0  0  0  0  0  0  0  0
   -1.7007  -10.5361   18.8567 C   0  0  0  0  0  0  0  0  0  0  0  0
   -3.1218  -14.5107   15.7125 H   0  0  0  0  0  0  0  0  0  0  0  0
   -4.2103  -13.9545   16.9368 H   0  0  0  0  0  0  0  0  0  0  0  0
   -6.3711  -16.8531   15.9920 H   0  0  0  0  0  0  0  0  0  0  0  0
   -5.2210  -17.3141   14.7223 H   0  0  0  0  0  0  0  0  0  0  0  0
   -6.5150  -18.9025   16.8681 H   0  0  0  0  0  0  0  0  0  0  0  0
   -4.8729  -19.3222   16.7429 H   0  0  0  0  0  0  0  0  0  0  0  0
   -7.7299  -20.5754   16.5565 H   0  0  0  0  0  0  0  0  0  0  0  0
   -6.5452  -21.7214   16.4900 H   0  0  0  0  0  0  0  0  0  0  0  0
   -9.0195  -21.5070   14.6900 H   0  0  0  0  0  0  0  0  0  0  0  0
   -8.1410  -22.7643   15.0159 H   0  0  0  0  0  0  0  0  0  0  0  0
   -6.9239  -22.2930   12.5024 H   0  0  0  0  0  0  0  0  0  0  0  0
   -7.9027  -20.8517   12.4383 H   0  0  0  0  0  0  0  0  0  0  0  0
   -5.8244  -19.4689   13.1175 H   0  0  0  0  0  0  0  0  0  0  0  0
   -4.8857  -20.9115   13.4450 H   0  0  0  0  0  0  0  0  0  0  0  0
   -3.2176   -9.7850   16.3810 H   0  0  0  0  0  0  0  0  0  0  0  0
   -3.5606   -9.5035   17.8817 H   0  0  0  0  0  0  0  0  0  0  0  0
   -1.6384   -8.3731   18.6588 H   0  0  0  0  0  0  0  0  0  0  0  0
    4.9695   -7.8259   18.7035 H   0  0  0  0  0  0  0  0  0  0  0  0
    6.1242   -5.8794   18.1716 H   0  0  0  0  0  0  0  0  0  0  0  0
    5.8527   -6.0480   16.0270 H   0  0  0  0  0  0  0  0  0  0  0  0
    3.0906   -5.8421   15.0464 H   0  0  0  0  0  0  0  0  0  0  0  0
    0.3451   -7.8265   15.7481 H   0  0  0  0  0  0  0  0  0  0  0  0
   -2.4327  -10.0035   19.4882 H   0  0  0  0  0  0  0  0  0  0  0  0
   -1.0062  -11.2125   19.3001 H   0  0  0  0  0  0  0  0  0  0  0  0
  1  2  2  0
  2  3  1  0
  3  4  1  0
  4  5  1  0
  5  6  1  0
  6  7  1  0
  7  8  1  0
  8  9  1  0
  9 10  1  0
 10 11  1  0
  2 12  1  0
 12 13  1  0
 13 14  1  0
 14 15  1  0
 15 16  2  0
 16 17  1  0
 17 18  2  0
 18 19  1  0
 19 20  2  0
 20 21  1  0
 21 22  2  0
 22 23  1  0
 14 24  1  0
 11  7  1  0
 24 12  1  0
 23 15  1  0
 22 17  1  0
  3 25  1  0
  3 26  1  0
  5 27  1  0
  5 28  1  0
  6 29  1  0
  6 30  1  0
  8 31  1  0
  8 32  1  0
  9 33  1  0
  9 34  1  0
 10 35  1  0
 10 36  1  0
 11 37  1  0
 11 38  1  0
 13 39  1  0
 13 40  1  0
 14 41  1  0
 18 42  1  0
 19 43  1  0
 20 44  1  0
 21 45  1  0
 23 46  1  0
 24 47  1  0
 24 48  1  0
M  END
>  <Energy>  (981) 
753.69223847111402

>  <compound_id>  (981) 
9234

>  <target_id>  (981) 
1

>  <reference_id>  (981) 
9

>  <inspiration_ids>  (981) 
[8, 9]

>  <energy_score>  (981) 
637.8418702213238

>  <distance_score>  (981) 
11.394398338584372

>  <path>  (981) 
/opt/xchem-fragalysis-2/maxwin/BulkDock/SCRATCH/511021/C9234-P9/C9234-P9.minimised.mol

>  <scratch_subdir>  (981) 
/opt/xchem-fragalysis-2/maxwin/BulkDock/SCRATCH/511021/C9234-P9

>  <fragmenstein_runtime>  (981) 
25.184646368026733

>  <fragmenstein_outcome>  (981) 
too moved

>  <fragmenstein_mode>  (981) 
expansion

>  <fragmenstein_error>  (981) 


$$$$
C51648-P8
     RDKit          3D

 39 41  0  0  0  0  0  0  0  0999 V2000
    1.0091  -16.6448   10.5135 C   0  0  0  0  0  0  0  0  0  0  0  0
    0.4153  -16.0712   11.8234 C   0  0  0  0  0  0  0  0  0  0  0  0
    0.6259  -14.6663   12.1499 O   0  0  0  0  0  0  0  0  0  0  0  0
   -0.4189  -13.5717   12.2465 C   0  0  0  0  0  0  0  0  0  0  0  0
    0.6590  -11.9660   12.1816 C   0  0  0  0  0  0  0  0  0  0  0  0
    0.7143  -11.2654   11.2139 O   0  0  0  0  0  0  0  0  0  0  0  0
    1.6225  -11.8489   13.6341 N   0  0  0  0  0  0  0  0  0  0  0  0
    3.1977  -10.7207   14.0553 C   0  0  0  0  0  0  0  0  0  0  0  0
    4.2123  -11.5077   14.6690 C   0  0  0  0  0  0  0  0  0  0  0  0
    5.3334  -12.4133   13.8320 C   0  0  0  0  0  0  0  0  0  0  0  0
    6.4381  -11.9311   13.2159 C   0  0  0  0  0  0  0  0  0  0  0  0
    7.8027  -12.2972   13.0333 N   0  0  0  0  0  0  0  0  0  0  0  0
    8.4581  -11.1833   13.3740 C   0  0  0  0  0  0  0  0  0  0  0  0
    7.5378  -10.1424   13.5500 N   0  0  0  0  0  0  0  0  0  0  0  0
    6.1423  -10.6872   13.5350 C   0  0  0  0  0  0  0  0  0  0  0  0
    4.4599  -10.1826   13.6067 C   0  0  0  0  0  0  0  0  0  0  0  0
   -1.6119  -14.6367   11.0938 C   0  0  0  0  0  0  0  0  0  0  0  0
   -1.9312  -16.2303   10.3025 C   0  0  0  0  0  0  0  0  0  0  0  0
   -3.1066  -16.5792   11.2001 C   0  0  0  0  0  0  0  0  0  0  0  0
   -3.4370  -15.0897   11.2347 C   0  0  0  0  0  0  0  0  0  0  0  0
    0.7612  -17.7108   10.4394 H   0  0  0  0  0  0  0  0  0  0  0  0
    2.0961  -16.6121   10.4478 H   0  0  0  0  0  0  0  0  0  0  0  0
    0.6657  -16.1531    9.6155 H   0  0  0  0  0  0  0  0  0  0  0  0
    0.9724  -16.6671   12.5254 H   0  0  0  0  0  0  0  0  0  0  0  0
   -0.5594  -16.4504   12.0839 H   0  0  0  0  0  0  0  0  0  0  0  0
   -0.5581  -13.6618   13.3277 H   0  0  0  0  0  0  0  0  0  0  0  0
    1.2896  -12.5364   14.3274 H   0  0  0  0  0  0  0  0  0  0  0  0
    3.9453  -11.8317   15.6645 H   0  0  0  0  0  0  0  0  0  0  0  0
    5.7515  -13.3553   14.0426 H   0  0  0  0  0  0  0  0  0  0  0  0
    9.5262  -11.0575   13.4614 H   0  0  0  0  0  0  0  0  0  0  0  0
    7.7654   -9.1799   13.7493 H   0  0  0  0  0  0  0  0  0  0  0  0
    4.4606   -9.0732   13.6424 H   0  0  0  0  0  0  0  0  0  0  0  0
   -1.4564  -13.8976   10.3704 H   0  0  0  0  0  0  0  0  0  0  0  0
   -1.2289  -17.0511   10.2388 H   0  0  0  0  0  0  0  0  0  0  0  0
   -2.3412  -16.1391    9.2831 H   0  0  0  0  0  0  0  0  0  0  0  0
   -2.8492  -17.0873   12.1322 H   0  0  0  0  0  0  0  0  0  0  0  0
   -3.8752  -17.1987   10.7234 H   0  0  0  0  0  0  0  0  0  0  0  0
   -4.0271  -14.7498   12.0938 H   0  0  0  0  0  0  0  0  0  0  0  0
   -4.0455  -14.8558   10.3426 H   0  0  0  0  0  0  0  0  0  0  0  0
  1  2  1  0
  2  3  1  0
  3  4  1  0
  4  5  1  0
  5  6  2  0
  5  7  1  0
  7  8  1  0
  8  9  2  0
  9 10  1  0
 10 11  2  0
 11 12  1  0
 12 13  2  0
 13 14  1  0
 14 15  1  0
 15 16  2  0
  4 17  1  0
 17 18  1  0
 18 19  1  0
 19 20  1  0
 16  8  1  0
 20 17  1  0
 15 11  1  0
  1 21  1  0
  1 22  1  0
  1 23  1  0
  2 24  1  0
  2 25  1  0
  4 26  1  0
  7 27  1  0
  9 28  1  0
 10 29  1  0
 13 30  1  0
 14 31  1  0
 16 32  1  0
 17 33  1  0
 18 34  1  0
 18 35  1  0
 19 36  1  0
 19 37  1  0
 20 38  1  0
 20 39  1  0
M  END
>  <Energy>  (982) 
671.46587259802845

>  <compound_id>  (982) 
51648

>  <target_id>  (982) 
1

>  <reference_id>  (982) 
8

>  <inspiration_ids>  (982) 
[8, 9]

>  <energy_score>  (982) 
584.8845757476622

>  <distance_score>  (982) 
13.576322184914481

>  <path>  (982) 
/opt/xchem-fragalysis-2/maxwin/BulkDock/SCRATCH/511021/C51648-P8/C51648-P8.minimised.mol

>  <scratch_subdir>  (982) 
/opt/xchem-fragalysis-2/maxwin/BulkDock/SCRATCH/511021/C51648-P8

>  <fragmenstein_runtime>  (982) 
13.244903326034546

>  <fragmenstein_outcome>  (982) 
too moved

>  <fragmenstein_mode>  (982) 
expansion

>  <fragmenstein_error>  (982) 


$$$$
C51648-P9
     RDKit          3D

 39 41  0  0  0  0  0  0  0  0999 V2000
    1.9247  -18.5538   10.9687 C   0  0  0  0  0  0  0  0  0  0  0  0
    1.5310  -17.5291    9.9269 C   0  0  0  0  0  0  0  0  0  0  0  0
    1.1468  -16.2451   10.4020 O   0  0  0  0  0  0  0  0  0  0  0  0
    0.0539  -16.0231   11.2972 C   0  0  0  0  0  0  0  0  0  0  0  0
   -0.2955  -14.3504   11.5176 C   0  0  0  0  0  0  0  0  0  0  0  0
   -1.4041  -14.1242   11.1579 O   0  0  0  0  0  0  0  0  0  0  0  0
    0.8054  -13.3909   12.0050 N   0  0  0  0  0  0  0  0  0  0  0  0
    0.8544  -11.6063   12.0884 C   0  0  0  0  0  0  0  0  0  0  0  0
    1.7643  -11.2873   13.4585 C   0  0  0  0  0  0  0  0  0  0  0  0
    3.3526  -10.4416   14.0728 C   0  0  0  0  0  0  0  0  0  0  0  0
    4.0322   -9.6433   13.2331 C   0  0  0  0  0  0  0  0  0  0  0  0
    4.4956   -8.2500   13.6662 N   0  0  0  0  0  0  0  0  0  0  0  0
    4.1168   -7.3199   12.8248 C   0  0  0  0  0  0  0  0  0  0  0  0
    3.4056   -7.9357   11.5868 N   0  0  0  0  0  0  0  0  0  0  0  0
    3.2234   -9.7132   11.6741 C   0  0  0  0  0  0  0  0  0  0  0  0
    1.8794  -10.7253   11.2421 C   0  0  0  0  0  0  0  0  0  0  0  0
   -1.2349  -16.9347   10.8036 C   0  0  0  0  0  0  0  0  0  0  0  0
   -1.7178  -18.1355   11.7043 C   0  0  0  0  0  0  0  0  0  0  0  0
   -3.0634  -18.1115   10.9585 C   0  0  0  0  0  0  0  0  0  0  0  0
   -2.7740  -16.6333   10.6102 C   0  0  0  0  0  0  0  0  0  0  0  0
    2.8515  -18.2545   11.4659 H   0  0  0  0  0  0  0  0  0  0  0  0
    2.1096  -19.5230   10.4944 H   0  0  0  0  0  0  0  0  0  0  0  0
    1.1551  -18.6873   11.7307 H   0  0  0  0  0  0  0  0  0  0  0  0
    2.4068  -17.3557    9.2900 H   0  0  0  0  0  0  0  0  0  0  0  0
    0.7819  -17.9422    9.2477 H   0  0  0  0  0  0  0  0  0  0  0  0
    0.3204  -16.4761   12.2014 H   0  0  0  0  0  0  0  0  0  0  0  0
    1.5921  -13.9186   12.3098 H   0  0  0  0  0  0  0  0  0  0  0  0
    1.4680  -12.1418   14.1100 H   0  0  0  0  0  0  0  0  0  0  0  0
    3.8104  -10.7382   15.0285 H   0  0  0  0  0  0  0  0  0  0  0  0
    4.3312   -6.2586   12.7674 H   0  0  0  0  0  0  0  0  0  0  0  0
    2.6239   -7.4308   11.2073 H   0  0  0  0  0  0  0  0  0  0  0  0
    2.3929  -11.3516   10.4855 H   0  0  0  0  0  0  0  0  0  0  0  0
   -0.9360  -17.3342    9.8271 H   0  0  0  0  0  0  0  0  0  0  0  0
   -1.1522  -19.0646   11.5965 H   0  0  0  0  0  0  0  0  0  0  0  0
   -1.8216  -17.9165   12.7694 H   0  0  0  0  0  0  0  0  0  0  0  0
   -3.0925  -18.7705   10.0835 H   0  0  0  0  0  0  0  0  0  0  0  0
   -3.9498  -18.2913   11.5718 H   0  0  0  0  0  0  0  0  0  0  0  0
   -3.2630  -15.9330   11.2831 H   0  0  0  0  0  0  0  0  0  0  0  0
   -3.0598  -16.3483    9.5921 H   0  0  0  0  0  0  0  0  0  0  0  0
  1  2  1  0
  2  3  1  0
  3  4  1  0
  4  5  1  0
  5  6  2  0
  5  7  1  0
  7  8  1  0
  8  9  2  0
  9 10  1  0
 10 11  2  0
 11 12  1  0
 12 13  2  0
 13 14  1  0
 14 15  1  0
 15 16  2  0
  4 17  1  0
 17 18  1  0
 18 19  1  0
 19 20  1  0
 16  8  1  0
 20 17  1  0
 15 11  1  0
  1 21  1  0
  1 22  1  0
  1 23  1  0
  2 24  1  0
  2 25  1  0
  4 26  1  0
  7 27  1  0
  9 28  1  0
 10 29  1  0
 13 30  1  0
 14 31  1  0
 16 32  1  0
 17 33  1  0
 18 34  1  0
 18 35  1  0
 19 36  1  0
 19 37  1  0
 20 38  1  0
 20 39  1  0
M  END
>  <Energy>  (983) 
468.92242371763552

>  <compound_id>  (983) 
51648

>  <target_id>  (983) 
1

>  <reference_id>  (983) 
9

>  <inspiration_ids>  (983) 
[8, 9]

>  <energy_score>  (983) 
382.3411268672675

>  <distance_score>  (983) 
13.452797662231047

>  <path>  (983) 
/opt/xchem-fragalysis-2/maxwin/BulkDock/SCRATCH/511021/C51648-P9/C51648-P9.minimised.mol

>  <scratch_subdir>  (983) 
/opt/xchem-fragalysis-2/maxwin/BulkDock/SCRATCH/511021/C51648-P9

>  <fragmenstein_runtime>  (983) 
10.368057489395142

>  <fragmenstein_outcome>  (983) 
too moved

>  <fragmenstein_mode>  (983) 
expansion

>  <fragmenstein_error>  (983) 


$$$$
C51649-P8
     RDKit          3D

 39 41  0  0  0  0  0  0  0  0999 V2000
    2.7334   -9.7377   14.6474 O   0  0  0  0  0  0  0  0  0  0  0  0
    3.1837  -10.7083   14.3098 C   0  0  0  0  0  0  0  0  0  0  0  0
    5.2313  -10.2470   14.0194 C   0  0  0  0  0  0  0  0  0  0  0  0
    6.1881   -8.5633   14.0432 C   0  0  0  0  0  0  0  0  0  0  0  0
    7.8392   -7.4547   14.5215 C   0  0  0  0  0  0  0  0  0  0  0  0
    8.6192   -5.9534   14.3242 N   0  0  0  0  0  0  0  0  0  0  0  0
   10.2974   -5.0656   14.5693 C   0  0  0  0  0  0  0  0  0  0  0  0
   10.7760   -3.7460   14.8117 C   0  0  0  0  0  0  0  0  0  0  0  0
   11.8188   -3.5982   15.7321 C   0  0  0  0  0  0  0  0  0  0  0  0
   12.3619   -4.7036   16.3972 C   0  0  0  0  0  0  0  0  0  0  0  0
   11.9017   -6.0560   16.1809 C   0  0  0  0  0  0  0  0  0  0  0  0
   10.8493   -6.4549   15.2668 C   0  0  0  0  0  0  0  0  0  0  0  0
    9.4972   -7.6704   15.1475 N   0  0  0  0  0  0  0  0  0  0  0  0
    1.5771  -12.1683   14.0053 N   0  0  0  0  0  0  0  0  0  0  0  0
   -0.3432  -12.1631   14.0044 C   0  0  0  0  0  0  0  0  0  0  0  0
   -1.1596  -13.9833   14.7737 C   0  0  0  0  0  0  0  0  0  0  0  0
   -1.6812  -13.6072   16.3260 F   0  0  0  0  0  0  0  0  0  0  0  0
    0.2263  -14.5372   15.8283 F   0  0  0  0  0  0  0  0  0  0  0  0
   -2.7788  -15.0057   15.1596 C   0  0  0  0  0  0  0  0  0  0  0  0
   -4.2025  -15.2519   14.4145 C   0  0  0  0  0  0  0  0  0  0  0  0
   -4.7646  -15.7828   15.7483 C   0  0  0  0  0  0  0  0  0  0  0  0
   -3.6363  -15.0474   16.5016 C   0  0  0  0  0  0  0  0  0  0  0  0
    5.6786  -11.2128   13.9172 H   0  0  0  0  0  0  0  0  0  0  0  0
    5.4818   -7.7820   13.7665 H   0  0  0  0  0  0  0  0  0  0  0  0
   10.2617   -2.8696   14.4409 H   0  0  0  0  0  0  0  0  0  0  0  0
   12.1990   -2.6033   15.9507 H   0  0  0  0  0  0  0  0  0  0  0  0
   13.1985   -4.5425   17.0737 H   0  0  0  0  0  0  0  0  0  0  0  0
   12.4754   -6.8805   16.4950 H   0  0  0  0  0  0  0  0  0  0  0  0
    9.5337   -8.5924   15.5450 H   0  0  0  0  0  0  0  0  0  0  0  0
    1.9512  -13.0678   13.8101 H   0  0  0  0  0  0  0  0  0  0  0  0
   -0.8104  -11.5400   13.2209 H   0  0  0  0  0  0  0  0  0  0  0  0
   -0.1712  -12.8448   13.1219 H   0  0  0  0  0  0  0  0  0  0  0  0
   -2.3791  -15.9955   15.2074 H   0  0  0  0  0  0  0  0  0  0  0  0
   -4.6972  -14.3857   13.9792 H   0  0  0  0  0  0  0  0  0  0  0  0
   -4.2549  -16.0253   13.6404 H   0  0  0  0  0  0  0  0  0  0  0  0
   -4.7070  -16.8734   15.8412 H   0  0  0  0  0  0  0  0  0  0  0  0
   -5.7808  -15.4617   15.9910 H   0  0  0  0  0  0  0  0  0  0  0  0
   -3.1943  -15.6237   17.3215 H   0  0  0  0  0  0  0  0  0  0  0  0
   -3.9506  -14.1030   16.9374 H   0  0  0  0  0  0  0  0  0  0  0  0
  1  2  2  0
  2  3  1  0
  3  4  2  3
  4  5  1  0
  5  6  2  0
  6  7  1  0
  7  8  2  0
  8  9  1  0
  9 10  2  0
 10 11  1  0
 11 12  2  0
 12 13  1  0
  2 14  1  0
 14 15  1  0
 15 16  1  0
 16 17  1  0
 16 18  1  0
 16 19  1  0
 19 20  1  0
 20 21  1  0
 21 22  1  0
 13  5  1  0
 22 19  1  0
 12  7  1  0
  3 23  1  0
  4 24  1  0
  8 25  1  0
  9 26  1  0
 10 27  1  0
 11 28  1  0
 13 29  1  0
 14 30  1  0
 15 31  1  0
 15 32  1  0
 19 33  1  0
 20 34  1  0
 20 35  1  0
 21 36  1  0
 21 37  1  0
 22 38  1  0
 22 39  1  0
M  END
>  <Energy>  (984) 
1578.387596247906

>  <compound_id>  (984) 
51649

>  <target_id>  (984) 
1

>  <reference_id>  (984) 
8

>  <inspiration_ids>  (984) 
[8, 9]

>  <energy_score>  (984) 
1533.5404601553287

>  <distance_score>  (984) 
10.93140913860513

>  <path>  (984) 
/opt/xchem-fragalysis-2/maxwin/BulkDock/SCRATCH/511021/C51649-P8/C51649-P8.minimised.mol

>  <scratch_subdir>  (984) 
/opt/xchem-fragalysis-2/maxwin/BulkDock/SCRATCH/511021/C51649-P8

>  <fragmenstein_runtime>  (984) 
18.021445512771606

>  <fragmenstein_outcome>  (984) 
too moved

>  <fragmenstein_mode>  (984) 
expansion

>  <fragmenstein_error>  (984) 


$$$$
C51649-P9
     RDKit          3D

 39 41  0  0  0  0  0  0  0  0999 V2000
    5.6116  -10.8666   13.4546 O   0  0  0  0  0  0  0  0  0  0  0  0
    4.9036   -9.9882   13.9013 C   0  0  0  0  0  0  0  0  0  0  0  0
    5.8841   -8.1135   14.1349 C   0  0  0  0  0  0  0  0  0  0  0  0
    6.5599   -6.8382   15.0570 C   0  0  0  0  0  0  0  0  0  0  0  0
    7.8974   -5.5585   15.4503 C   0  0  0  0  0  0  0  0  0  0  0  0
    8.9674   -5.2055   14.5232 N   0  0  0  0  0  0  0  0  0  0  0  0
   10.0795   -3.9788   14.8297 C   0  0  0  0  0  0  0  0  0  0  0  0
   11.4552   -3.7714   14.7050 C   0  0  0  0  0  0  0  0  0  0  0  0
   11.9154   -2.4547   14.8408 C   0  0  0  0  0  0  0  0  0  0  0  0
   11.0196   -1.3991   15.0582 C   0  0  0  0  0  0  0  0  0  0  0  0
    9.6432   -1.6261   15.2108 C   0  0  0  0  0  0  0  0  0  0  0  0
    9.2592   -2.9704   15.1281 C   0  0  0  0  0  0  0  0  0  0  0  0
    8.1017   -3.7138   15.5238 N   0  0  0  0  0  0  0  0  0  0  0  0
    3.1559  -10.1742   14.2005 N   0  0  0  0  0  0  0  0  0  0  0  0
    1.7684  -11.7159   13.7938 C   0  0  0  0  0  0  0  0  0  0  0  0
    0.6364  -12.5774   12.4262 C   0  0  0  0  0  0  0  0  0  0  0  0
    0.5543  -11.7094   11.4006 F   0  0  0  0  0  0  0  0  0  0  0  0
   -0.5608  -12.5263   13.0299 F   0  0  0  0  0  0  0  0  0  0  0  0
    0.5201  -14.3178   11.8698 C   0  0  0  0  0  0  0  0  0  0  0  0
    1.1651  -15.7929   10.9469 C   0  0  0  0  0  0  0  0  0  0  0  0
   -0.2005  -16.3574   10.8014 C   0  0  0  0  0  0  0  0  0  0  0  0
   -0.7897  -14.9936   11.2542 C   0  0  0  0  0  0  0  0  0  0  0  0
    6.8079   -8.0959   13.5382 H   0  0  0  0  0  0  0  0  0  0  0  0
    7.5387   -7.2098   14.6661 H   0  0  0  0  0  0  0  0  0  0  0  0
   12.1378   -4.5940   14.5832 H   0  0  0  0  0  0  0  0  0  0  0  0
   12.9803   -2.2526   14.7570 H   0  0  0  0  0  0  0  0  0  0  0  0
   11.3995   -0.3814   15.1112 H   0  0  0  0  0  0  0  0  0  0  0  0
    8.9430   -0.8260   15.4128 H   0  0  0  0  0  0  0  0  0  0  0  0
    7.2715   -3.2024   15.2608 H   0  0  0  0  0  0  0  0  0  0  0  0
    2.7827   -9.2936   14.4874 H   0  0  0  0  0  0  0  0  0  0  0  0
    0.9230  -11.6437   14.3347 H   0  0  0  0  0  0  0  0  0  0  0  0
    1.9555  -12.5369   14.5195 H   0  0  0  0  0  0  0  0  0  0  0  0
    0.4344  -14.5030   12.8905 H   0  0  0  0  0  0  0  0  0  0  0  0
    1.6839  -15.7099    9.9795 H   0  0  0  0  0  0  0  0  0  0  0  0
    1.7701  -16.5974   11.3510 H   0  0  0  0  0  0  0  0  0  0  0  0
   -0.2942  -17.2759   11.3740 H   0  0  0  0  0  0  0  0  0  0  0  0
   -0.4476  -16.7946    9.8344 H   0  0  0  0  0  0  0  0  0  0  0  0
   -1.0877  -14.3366   10.5134 H   0  0  0  0  0  0  0  0  0  0  0  0
   -1.8406  -14.9981   11.4771 H   0  0  0  0  0  0  0  0  0  0  0  0
  1  2  2  0
  2  3  1  0
  3  4  2  3
  4  5  1  0
  5  6  2  0
  6  7  1  0
  7  8  2  0
  8  9  1  0
  9 10  2  0
 10 11  1  0
 11 12  2  0
 12 13  1  0
  2 14  1  0
 14 15  1  0
 15 16  1  0
 16 17  1  0
 16 18  1  0
 16 19  1  0
 19 20  1  0
 20 21  1  0
 21 22  1  0
 13  5  1  0
 22 19  1  0
 12  7  1  0
  3 23  1  0
  4 24  1  0
  8 25  1  0
  9 26  1  0
 10 27  1  0
 11 28  1  0
 13 29  1  0
 14 30  1  0
 15 31  1  0
 15 32  1  0
 19 33  1  0
 20 34  1  0
 20 35  1  0
 21 36  1  0
 21 37  1  0
 22 38  1  0
 22 39  1  0
M  END
>  <Energy>  (985) 
947.37308766669651

>  <compound_id>  (985) 
51649

>  <target_id>  (985) 
1

>  <reference_id>  (985) 
9

>  <inspiration_ids>  (985) 
[8, 9]

>  <energy_score>  (985) 
902.5259515741213

>  <distance_score>  (985) 
11.898948032058176

>  <path>  (985) 
/opt/xchem-fragalysis-2/maxwin/BulkDock/SCRATCH/511021/C51649-P9/C51649-P9.minimised.mol

>  <scratch_subdir>  (985) 
/opt/xchem-fragalysis-2/maxwin/BulkDock/SCRATCH/511021/C51649-P9

>  <fragmenstein_runtime>  (985) 
18.777741193771362

>  <fragmenstein_outcome>  (985) 
too moved

>  <fragmenstein_mode>  (985) 
expansion

>  <fragmenstein_error>  (985) 


$$$$
C51650-P8
     RDKit          3D

 59 63  0  0  0  0  0  0  0  0999 V2000
   -0.8704  -21.4372   17.4461 O   0  0  0  0  0  0  0  0  0  0  0  0
    0.1433  -21.0786   16.8708 C   0  0  0  0  0  0  0  0  0  0  0  0
    1.3977  -20.4714   17.5262 C   0  0  0  0  0  0  0  0  0  0  0  0
    2.3282  -20.2358   16.3577 C   0  0  0  0  0  0  0  0  0  0  0  0
    3.6457  -19.7076   16.3226 C   0  0  0  0  0  0  0  0  0  0  0  0
    4.3111  -19.6031   15.0870 C   0  0  0  0  0  0  0  0  0  0  0  0
    5.8119  -19.1756   14.8904 C   0  0  0  0  0  0  0  0  0  0  0  0
    6.7304  -18.1410   15.7849 C   0  0  0  0  0  0  0  0  0  0  0  0
    8.3036  -17.9442   15.3319 C   0  0  0  0  0  0  0  0  0  0  0  0
    9.4183  -16.7509   15.8940 C   0  0  0  0  0  0  0  0  0  0  0  0
    9.6796  -16.6848   17.0653 O   0  0  0  0  0  0  0  0  0  0  0  0
    9.9431  -15.9942   14.7563 N   0  0  0  0  0  0  0  0  0  0  0  0
   10.8390  -14.9024   14.6976 C   0  0  0  0  0  0  0  0  0  0  0  0
   11.1240  -14.5690   13.4404 N   0  0  0  0  0  0  0  0  0  0  0  0
   11.9744  -13.5059   13.4251 C   0  0  0  0  0  0  0  0  0  0  0  0
   12.5268  -12.8278   12.3254 C   0  0  0  0  0  0  0  0  0  0  0  0
   13.4931  -11.8475   12.5414 C   0  0  0  0  0  0  0  0  0  0  0  0
   13.8845  -11.5331   13.8354 C   0  0  0  0  0  0  0  0  0  0  0  0
   13.2967  -12.1561   14.9391 C   0  0  0  0  0  0  0  0  0  0  0  0
   12.3251  -13.1548   14.7097 C   0  0  0  0  0  0  0  0  0  0  0  0
   11.5331  -13.9921   15.5341 N   0  0  0  0  0  0  0  0  0  0  0  0
   11.5360  -13.7681   16.9888 C   0  0  0  0  0  0  0  0  0  0  0  0
   12.9077  -14.1536   17.6032 C   0  0  0  0  0  0  0  0  0  0  0  0
   13.1332  -13.6747   19.0382 C   0  0  0  0  0  0  0  0  0  0  0  0
   12.7893  -12.2073   19.2349 C   0  0  0  0  0  0  0  0  0  0  0  0
   11.3447  -11.9721   18.8172 C   0  0  0  0  0  0  0  0  0  0  0  0
   11.1529  -12.3028   17.3385 C   0  0  0  0  0  0  0  0  0  0  0  0
    3.5825  -20.0683   13.9338 C   0  0  0  0  0  0  0  0  0  0  0  0
    2.2624  -20.5870   13.9766 C   0  0  0  0  0  0  0  0  0  0  0  0
    1.6565  -20.6608   15.2036 C   0  0  0  0  0  0  0  0  0  0  0  0
    0.3854  -21.1434   15.5068 N   0  0  0  0  0  0  0  0  0  0  0  0
    1.1376  -19.5292   18.0149 H   0  0  0  0  0  0  0  0  0  0  0  0
    1.8278  -21.1911   18.2272 H   0  0  0  0  0  0  0  0  0  0  0  0
    4.1365  -19.4040   17.2421 H   0  0  0  0  0  0  0  0  0  0  0  0
    5.8753  -18.7709   13.8711 H   0  0  0  0  0  0  0  0  0  0  0  0
    6.3729  -20.1202   14.8817 H   0  0  0  0  0  0  0  0  0  0  0  0
    6.7197  -18.4822   16.8260 H   0  0  0  0  0  0  0  0  0  0  0  0
    6.2311  -17.1710   15.7566 H   0  0  0  0  0  0  0  0  0  0  0  0
    8.8058  -18.8899   15.5801 H   0  0  0  0  0  0  0  0  0  0  0  0
    8.3098  -17.9024   14.2384 H   0  0  0  0  0  0  0  0  0  0  0  0
    9.5615  -16.3683   13.9093 H   0  0  0  0  0  0  0  0  0  0  0  0
   12.2383  -13.1180   11.3215 H   0  0  0  0  0  0  0  0  0  0  0  0
   13.9658  -11.3666   11.6903 H   0  0  0  0  0  0  0  0  0  0  0  0
   14.6661  -10.7975   14.0047 H   0  0  0  0  0  0  0  0  0  0  0  0
   13.6373  -11.8735   15.9295 H   0  0  0  0  0  0  0  0  0  0  0  0
   10.7696  -14.4298   17.4030 H   0  0  0  0  0  0  0  0  0  0  0  0
   13.0087  -15.2468   17.5739 H   0  0  0  0  0  0  0  0  0  0  0  0
   13.7409  -13.7823   17.0001 H   0  0  0  0  0  0  0  0  0  0  0  0
   14.1770  -13.8517   19.3223 H   0  0  0  0  0  0  0  0  0  0  0  0
   12.5191  -14.2835   19.7140 H   0  0  0  0  0  0  0  0  0  0  0  0
   12.9197  -11.9343   20.2879 H   0  0  0  0  0  0  0  0  0  0  0  0
   13.4747  -11.5858   18.6503 H   0  0  0  0  0  0  0  0  0  0  0  0
   10.6843  -12.5845   19.4405 H   0  0  0  0  0  0  0  0  0  0  0  0
   11.0722  -10.9301   19.0024 H   0  0  0  0  0  0  0  0  0  0  0  0
   11.7443  -11.5738   16.7853 H   0  0  0  0  0  0  0  0  0  0  0  0
   10.1339  -12.0870   17.0036 H   0  0  0  0  0  0  0  0  0  0  0  0
    4.0711  -20.0253   12.9603 H   0  0  0  0  0  0  0  0  0  0  0  0
    1.7678  -20.9114   13.0695 H   0  0  0  0  0  0  0  0  0  0  0  0
   -0.2835  -21.5104   14.8456 H   0  0  0  0  0  0  0  0  0  0  0  0
  1  2  2  0
  2  3  1  0
  3  4  1  0
  4  5  2  0
  5  6  1  0
  6  7  1  0
  7  8  1  0
  8  9  1  0
  9 10  1  0
 10 11  2  0
 10 12  1  0
 12 13  1  0
 13 14  2  0
 14 15  1  0
 15 16  2  0
 16 17  1  0
 17 18  2  0
 18 19  1  0
 19 20  2  0
 20 21  1  0
 21 22  1  0
 22 23  1  0
 23 24  1  0
 24 25  1  0
 25 26  1  0
 26 27  1  0
  6 28  2  0
 28 29  1  0
 29 30  2  0
 30 31  1  0
 31  2  1  0
 30  4  1  0
 21 13  1  0
 27 22  1  0
 20 15  1  0
  3 32  1  0
  3 33  1  0
  5 34  1  0
  7 35  1  0
  7 36  1  0
  8 37  1  0
  8 38  1  0
  9 39  1  0
  9 40  1  0
 12 41  1  0
 16 42  1  0
 17 43  1  0
 18 44  1  0
 19 45  1  0
 22 46  1  0
 23 47  1  0
 23 48  1  0
 24 49  1  0
 24 50  1  0
 25 51  1  0
 25 52  1  0
 26 53  1  0
 26 54  1  0
 27 55  1  0
 27 56  1  0
 28 57  1  0
 29 58  1  0
 31 59  1  0
M  END
>  <Energy>  (986) 
63.234591307897979

>  <compound_id>  (986) 
51650

>  <target_id>  (986) 
1

>  <reference_id>  (986) 
8

>  <inspiration_ids>  (986) 
[8, 9]

>  <energy_score>  (986) 
0.6569281665337314

>  <distance_score>  (986) 
13.4872631500537

>  <path>  (986) 
/opt/xchem-fragalysis-2/maxwin/BulkDock/SCRATCH/511021/C51650-P8/C51650-P8.minimised.mol

>  <scratch_subdir>  (986) 
/opt/xchem-fragalysis-2/maxwin/BulkDock/SCRATCH/511021/C51650-P8

>  <fragmenstein_runtime>  (986) 
38.78167390823364

>  <fragmenstein_outcome>  (986) 
too moved

>  <fragmenstein_mode>  (986) 
expansion

>  <fragmenstein_error>  (986) 


$$$$
C51650-P9
     RDKit          3D

 59 63  0  0  0  0  0  0  0  0999 V2000
   -7.1972  -16.5947   17.3262 O   0  0  0  0  0  0  0  0  0  0  0  0
   -6.0880  -16.2218   17.6687 C   0  0  0  0  0  0  0  0  0  0  0  0
   -5.3387  -14.9748   17.1699 C   0  0  0  0  0  0  0  0  0  0  0  0
   -4.0238  -15.0277   17.9217 C   0  0  0  0  0  0  0  0  0  0  0  0
   -2.8552  -14.2338   17.7726 C   0  0  0  0  0  0  0  0  0  0  0  0
   -1.6325  -14.6756   18.3024 C   0  0  0  0  0  0  0  0  0  0  0  0
   -0.0212  -14.0114   17.5058 C   0  0  0  0  0  0  0  0  0  0  0  0
    1.9823  -13.8608   17.7398 C   0  0  0  0  0  0  0  0  0  0  0  0
    3.0122  -11.9793   17.6841 C   0  0  0  0  0  0  0  0  0  0  0  0
    3.3846  -10.3389   16.6052 C   0  0  0  0  0  0  0  0  0  0  0  0
    4.0275  -10.6639   15.6284 O   0  0  0  0  0  0  0  0  0  0  0  0
    3.0763   -8.4359   16.9123 N   0  0  0  0  0  0  0  0  0  0  0  0
    3.7820   -6.8326   15.9743 C   0  0  0  0  0  0  0  0  0  0  0  0
    3.2316   -5.9793   15.0773 N   0  0  0  0  0  0  0  0  0  0  0  0
    3.2859   -4.5577   15.1957 C   0  0  0  0  0  0  0  0  0  0  0  0
    2.5510   -3.5787   14.4988 C   0  0  0  0  0  0  0  0  0  0  0  0
    2.4919   -2.2797   15.0119 C   0  0  0  0  0  0  0  0  0  0  0  0
    3.0293   -1.9847   16.2617 C   0  0  0  0  0  0  0  0  0  0  0  0
    3.7607   -2.9386   16.9795 C   0  0  0  0  0  0  0  0  0  0  0  0
    4.1115   -4.1858   16.3156 C   0  0  0  0  0  0  0  0  0  0  0  0
    5.0032   -5.5973   16.6476 N   0  0  0  0  0  0  0  0  0  0  0  0
    6.6673   -5.1700   15.8113 C   0  0  0  0  0  0  0  0  0  0  0  0
    6.2727   -3.2599   14.9874 C   0  0  0  0  0  0  0  0  0  0  0  0
    7.0516   -1.6977   14.8737 C   0  0  0  0  0  0  0  0  0  0  0  0
    8.5210   -1.4179   15.1593 C   0  0  0  0  0  0  0  0  0  0  0  0
    9.3317   -2.6915   15.0924 C   0  0  0  0  0  0  0  0  0  0  0  0
    8.3895   -4.0938   15.6645 C   0  0  0  0  0  0  0  0  0  0  0  0
   -1.7698  -15.8431   19.2522 C   0  0  0  0  0  0  0  0  0  0  0  0
   -2.9725  -16.5623   19.4629 C   0  0  0  0  0  0  0  0  0  0  0  0
   -4.0610  -16.1718   18.7294 C   0  0  0  0  0  0  0  0  0  0  0  0
   -5.2674  -16.8490   18.5920 N   0  0  0  0  0  0  0  0  0  0  0  0
   -5.9020  -14.0745   17.4255 H   0  0  0  0  0  0  0  0  0  0  0  0
   -5.1737  -15.0735   16.0943 H   0  0  0  0  0  0  0  0  0  0  0  0
   -2.7939  -13.4209   17.0910 H   0  0  0  0  0  0  0  0  0  0  0  0
   -0.2138  -14.1930   16.4760 H   0  0  0  0  0  0  0  0  0  0  0  0
   -0.3938  -12.9970   17.5582 H   0  0  0  0  0  0  0  0  0  0  0  0
    2.2719  -14.5748   16.9643 H   0  0  0  0  0  0  0  0  0  0  0  0
    2.3668  -14.4646   18.5847 H   0  0  0  0  0  0  0  0  0  0  0  0
    2.8245  -11.9358   16.6271 H   0  0  0  0  0  0  0  0  0  0  0  0
    3.9459  -12.4027   17.9599 H   0  0  0  0  0  0  0  0  0  0  0  0
    2.6026   -8.3226   17.8044 H   0  0  0  0  0  0  0  0  0  0  0  0
    1.9837   -3.8571   13.6175 H   0  0  0  0  0  0  0  0  0  0  0  0
    1.9162   -1.5249   14.4812 H   0  0  0  0  0  0  0  0  0  0  0  0
    2.8413   -1.0105   16.7080 H   0  0  0  0  0  0  0  0  0  0  0  0
    4.0227   -2.7093   18.0090 H   0  0  0  0  0  0  0  0  0  0  0  0
    6.8189   -6.1842   15.4122 H   0  0  0  0  0  0  0  0  0  0  0  0
    5.2429   -2.9261   15.0647 H   0  0  0  0  0  0  0  0  0  0  0  0
    6.3749   -3.1962   13.9341 H   0  0  0  0  0  0  0  0  0  0  0  0
    6.8897   -1.3877   13.8283 H   0  0  0  0  0  0  0  0  0  0  0  0
    6.4472   -0.9723   15.4347 H   0  0  0  0  0  0  0  0  0  0  0  0
    8.9112   -0.6364   14.5029 H   0  0  0  0  0  0  0  0  0  0  0  0
    8.6271   -0.9685   16.1500 H   0  0  0  0  0  0  0  0  0  0  0  0
    9.9236   -2.7646   14.1912 H   0  0  0  0  0  0  0  0  0  0  0  0
   10.2251   -2.5622   15.7325 H   0  0  0  0  0  0  0  0  0  0  0  0
    7.9233   -3.2049   15.8971 H   0  0  0  0  0  0  0  0  0  0  0  0
    8.8496   -4.5563   14.7988 H   0  0  0  0  0  0  0  0  0  0  0  0
   -0.8669  -16.3271   19.6389 H   0  0  0  0  0  0  0  0  0  0  0  0
   -2.9810  -17.4558   20.0756 H   0  0  0  0  0  0  0  0  0  0  0  0
   -5.5135  -17.7166   19.0434 H   0  0  0  0  0  0  0  0  0  0  0  0
  1  2  2  0
  2  3  1  0
  3  4  1  0
  4  5  2  0
  5  6  1  0
  6  7  1  0
  7  8  1  0
  8  9  1  0
  9 10  1  0
 10 11  2  0
 10 12  1  0
 12 13  1  0
 13 14  2  0
 14 15  1  0
 15 16  2  0
 16 17  1  0
 17 18  2  0
 18 19  1  0
 19 20  2  0
 20 21  1  0
 21 22  1  0
 22 23  1  0
 23 24  1  0
 24 25  1  0
 25 26  1  0
 26 27  1  0
  6 28  2  0
 28 29  1  0
 29 30  2  0
 30 31  1  0
 31  2  1  0
 30  4  1  0
 21 13  1  0
 27 22  1  0
 20 15  1  0
  3 32  1  0
  3 33  1  0
  5 34  1  0
  7 35  1  0
  7 36  1  0
  8 37  1  0
  8 38  1  0
  9 39  1  0
  9 40  1  0
 12 41  1  0
 16 42  1  0
 17 43  1  0
 18 44  1  0
 19 45  1  0
 22 46  1  0
 23 47  1  0
 23 48  1  0
 24 49  1  0
 24 50  1  0
 25 51  1  0
 25 52  1  0
 26 53  1  0
 26 54  1  0
 27 55  1  0
 27 56  1  0
 28 57  1  0
 29 58  1  0
 31 59  1  0
M  END
>  <Energy>  (987) 
1231.4902086701532

>  <compound_id>  (987) 
51650

>  <target_id>  (987) 
1

>  <reference_id>  (987) 
9

>  <inspiration_ids>  (987) 
[8, 9]

>  <energy_score>  (987) 
1168.9125455287826

>  <distance_score>  (987) 
12.000730869230829

>  <path>  (987) 
/opt/xchem-fragalysis-2/maxwin/BulkDock/SCRATCH/511021/C51650-P9/C51650-P9.minimised.mol

>  <scratch_subdir>  (987) 
/opt/xchem-fragalysis-2/maxwin/BulkDock/SCRATCH/511021/C51650-P9

>  <fragmenstein_runtime>  (987) 
27.789544105529785

>  <fragmenstein_outcome>  (987) 
too moved

>  <fragmenstein_mode>  (987) 
expansion

>  <fragmenstein_error>  (987) 


$$$$
C51651-P8
     RDKit          3D

 43 47  0  0  0  0  0  0  0  0999 V2000
    4.2779  -14.7517   19.6073 O   0  0  0  0  0  0  0  0  0  0  0  0
    4.7425  -15.6076   18.9019 C   0  0  0  0  0  0  0  0  0  0  0  0
    6.0078  -15.6556   18.1686 N   0  0  0  0  0  0  0  0  0  0  0  0
    7.0220  -14.6761   17.9904 C   0  0  0  0  0  0  0  0  0  0  0  0
    7.9014  -14.9237   17.0227 N   0  0  0  0  0  0  0  0  0  0  0  0
    8.5342  -13.7522   16.6851 C   0  0  0  0  0  0  0  0  0  0  0  0
    9.4715  -13.4978   15.6650 C   0  0  0  0  0  0  0  0  0  0  0  0
    9.9145  -12.1934   15.4391 C   0  0  0  0  0  0  0  0  0  0  0  0
    9.4159  -11.1597   16.2129 C   0  0  0  0  0  0  0  0  0  0  0  0
    8.5055  -11.4007   17.2515 C   0  0  0  0  0  0  0  0  0  0  0  0
    8.0873  -12.7205   17.4877 C   0  0  0  0  0  0  0  0  0  0  0  0
    7.2874  -13.3580   18.4545 N   0  0  0  0  0  0  0  0  0  0  0  0
    7.1445  -12.8177   19.8079 C   0  0  0  0  0  0  0  0  0  0  0  0
    8.5011  -12.6450   20.5420 C   0  0  0  0  0  0  0  0  0  0  0  0
    8.8427  -11.1600   20.5300 C   0  0  0  0  0  0  0  0  0  0  0  0
    7.4905  -10.4691   20.5440 C   0  0  0  0  0  0  0  0  0  0  0  0
    6.4788  -11.4332   19.8950 C   0  0  0  0  0  0  0  0  0  0  0  0
    3.7521  -16.9055   18.6161 C   0  0  0  0  0  0  0  0  0  0  0  0
    3.7254  -17.6929   17.3537 C   0  0  0  0  0  0  0  0  0  0  0  0
    2.8173  -18.6701   17.0851 C   0  0  0  0  0  0  0  0  0  0  0  0
    1.7797  -18.9754   18.0081 C   0  0  0  0  0  0  0  0  0  0  0  0
    0.7276  -19.7745   17.9746 N   0  0  0  0  0  0  0  0  0  0  0  0
    0.0467  -19.5505   19.1421 N   0  0  0  0  0  0  0  0  0  0  0  0
    0.6586  -18.6297   19.8833 N   0  0  0  0  0  0  0  0  0  0  0  0
    1.7703  -18.2314   19.1902 N   0  0  0  0  0  0  0  0  0  0  0  0
    2.7349  -17.2210   19.4754 C   0  0  0  0  0  0  0  0  0  0  0  0
    6.0349  -16.4950   17.6115 H   0  0  0  0  0  0  0  0  0  0  0  0
    9.8272  -14.3166   15.0485 H   0  0  0  0  0  0  0  0  0  0  0  0
   10.6282  -11.9892   14.6466 H   0  0  0  0  0  0  0  0  0  0  0  0
    9.7241  -10.1426   15.9921 H   0  0  0  0  0  0  0  0  0  0  0  0
    8.1328  -10.5695   17.8304 H   0  0  0  0  0  0  0  0  0  0  0  0
    6.5419  -13.5549   20.3503 H   0  0  0  0  0  0  0  0  0  0  0  0
    9.3081  -13.2539   20.1214 H   0  0  0  0  0  0  0  0  0  0  0  0
    8.3705  -12.9614   21.5852 H   0  0  0  0  0  0  0  0  0  0  0  0
    9.4246  -10.8931   19.6465 H   0  0  0  0  0  0  0  0  0  0  0  0
    9.4476  -10.8792   21.3984 H   0  0  0  0  0  0  0  0  0  0  0  0
    7.5179   -9.5017   20.0333 H   0  0  0  0  0  0  0  0  0  0  0  0
    7.1870  -10.2785   21.5806 H   0  0  0  0  0  0  0  0  0  0  0  0
    5.5808  -11.4872   20.5225 H   0  0  0  0  0  0  0  0  0  0  0  0
    6.1450  -11.0605   18.9211 H   0  0  0  0  0  0  0  0  0  0  0  0
    4.4544  -17.4480   16.5864 H   0  0  0  0  0  0  0  0  0  0  0  0
    2.8346  -19.2001   16.1362 H   0  0  0  0  0  0  0  0  0  0  0  0
    2.5792  -16.6878   20.4060 H   0  0  0  0  0  0  0  0  0  0  0  0
  1  2  2  0
  2  3  1  0
  3  4  1  0
  4  5  2  0
  5  6  1  0
  6  7  2  0
  7  8  1  0
  8  9  2  0
  9 10  1  0
 10 11  2  0
 11 12  1  0
 12 13  1  0
 13 14  1  0
 14 15  1  0
 15 16  1  0
 16 17  1  0
  2 18  1  0
 18 19  1  0
 19 20  2  0
 20 21  1  0
 21 22  2  0
 22 23  1  0
 23 24  2  0
 24 25  1  0
 25 26  1  0
 12  4  1  0
 17 13  1  0
 26 18  2  0
 11  6  1  0
 25 21  1  0
  3 27  1  0
  7 28  1  0
  8 29  1  0
  9 30  1  0
 10 31  1  0
 13 32  1  0
 14 33  1  0
 14 34  1  0
 15 35  1  0
 15 36  1  0
 16 37  1  0
 16 38  1  0
 17 39  1  0
 17 40  1  0
 19 41  1  0
 20 42  1  0
 26 43  1  0
M  END
>  <Energy>  (988) 
49.931527975621371

>  <compound_id>  (988) 
51651

>  <target_id>  (988) 
1

>  <reference_id>  (988) 
8

>  <inspiration_ids>  (988) 
[8, 9]

>  <energy_score>  (988) 
-36.36881020605324

>  <distance_score>  (988) 
14.961674044719562

>  <path>  (988) 
/opt/xchem-fragalysis-2/maxwin/BulkDock/SCRATCH/511021/C51651-P8/C51651-P8.minimised.mol

>  <scratch_subdir>  (988) 
/opt/xchem-fragalysis-2/maxwin/BulkDock/SCRATCH/511021/C51651-P8

>  <fragmenstein_runtime>  (988) 
13.561332702636719

>  <fragmenstein_outcome>  (988) 
too moved

>  <fragmenstein_mode>  (988) 
expansion

>  <fragmenstein_error>  (988) 


$$$$
C51651-P9
     RDKit          3D

 43 47  0  0  0  0  0  0  0  0999 V2000
    4.6126  -14.4150   19.6212 O   0  0  0  0  0  0  0  0  0  0  0  0
    5.0353  -15.2805   18.9021 C   0  0  0  0  0  0  0  0  0  0  0  0
    6.2676  -15.3528   18.1253 N   0  0  0  0  0  0  0  0  0  0  0  0
    7.2854  -14.3986   17.9081 C   0  0  0  0  0  0  0  0  0  0  0  0
    8.1595  -14.6787   16.9457 N   0  0  0  0  0  0  0  0  0  0  0  0
    8.7581  -13.5098   16.5464 C   0  0  0  0  0  0  0  0  0  0  0  0
    9.6735  -13.2692   15.5035 C   0  0  0  0  0  0  0  0  0  0  0  0
   10.0920  -11.9629   15.2355 C   0  0  0  0  0  0  0  0  0  0  0  0
    9.5969  -10.9165   15.9952 C   0  0  0  0  0  0  0  0  0  0  0  0
    8.7057  -11.1470   17.0507 C   0  0  0  0  0  0  0  0  0  0  0  0
    8.3039  -12.4601   17.3181 C   0  0  0  0  0  0  0  0  0  0  0  0
    7.5387  -13.0700   18.3247 N   0  0  0  0  0  0  0  0  0  0  0  0
    7.4804  -12.5026   19.6727 C   0  0  0  0  0  0  0  0  0  0  0  0
    8.8868  -12.1858   20.2642 C   0  0  0  0  0  0  0  0  0  0  0  0
    8.7213  -10.9189   21.0905 C   0  0  0  0  0  0  0  0  0  0  0  0
    7.6658  -10.1278   20.3456 C   0  0  0  0  0  0  0  0  0  0  0  0
    6.6919  -11.1836   19.7990 C   0  0  0  0  0  0  0  0  0  0  0  0
    4.0309  -16.5731   18.6834 C   0  0  0  0  0  0  0  0  0  0  0  0
    4.1787  -17.6382   17.6559 C   0  0  0  0  0  0  0  0  0  0  0  0
    3.3178  -18.6814   17.5173 C   0  0  0  0  0  0  0  0  0  0  0  0
    2.1602  -18.7793   18.3373 C   0  0  0  0  0  0  0  0  0  0  0  0
    1.0989  -19.5670   18.3201 N   0  0  0  0  0  0  0  0  0  0  0  0
    0.2160  -19.0355   19.2216 N   0  0  0  0  0  0  0  0  0  0  0  0
    0.7067  -17.9286   19.7720 N   0  0  0  0  0  0  0  0  0  0  0  0
    1.9510  -17.7324   19.2389 N   0  0  0  0  0  0  0  0  0  0  0  0
    2.8808  -16.6761   19.4157 C   0  0  0  0  0  0  0  0  0  0  0  0
    6.3367  -16.2625   17.7009 H   0  0  0  0  0  0  0  0  0  0  0  0
   10.0300  -14.0995   14.9030 H   0  0  0  0  0  0  0  0  0  0  0  0
   10.7830  -11.7704   14.4206 H   0  0  0  0  0  0  0  0  0  0  0  0
    9.8883   -9.8973   15.7600 H   0  0  0  0  0  0  0  0  0  0  0  0
    8.3274  -10.3191   17.6222 H   0  0  0  0  0  0  0  0  0  0  0  0
    6.9996  -13.2639   20.2989 H   0  0  0  0  0  0  0  0  0  0  0  0
    9.2431  -13.0172   20.8826 H   0  0  0  0  0  0  0  0  0  0  0  0
    9.6514  -12.0208   19.4992 H   0  0  0  0  0  0  0  0  0  0  0  0
    9.6590  -10.3667   21.2009 H   0  0  0  0  0  0  0  0  0  0  0  0
    8.3579  -11.1750   22.0927 H   0  0  0  0  0  0  0  0  0  0  0  0
    8.1253   -9.5560   19.5381 H   0  0  0  0  0  0  0  0  0  0  0  0
    7.1564   -9.4107   20.9970 H   0  0  0  0  0  0  0  0  0  0  0  0
    5.8811  -11.3261   20.5246 H   0  0  0  0  0  0  0  0  0  0  0  0
    6.2256  -10.8555   18.8644 H   0  0  0  0  0  0  0  0  0  0  0  0
    5.0061  -17.5720   16.9564 H   0  0  0  0  0  0  0  0  0  0  0  0
    3.4579  -19.4237   16.7360 H   0  0  0  0  0  0  0  0  0  0  0  0
    2.6065  -15.9427   20.1648 H   0  0  0  0  0  0  0  0  0  0  0  0
  1  2  2  0
  2  3  1  0
  3  4  1  0
  4  5  2  0
  5  6  1  0
  6  7  2  0
  7  8  1  0
  8  9  2  0
  9 10  1  0
 10 11  2  0
 11 12  1  0
 12 13  1  0
 13 14  1  0
 14 15  1  0
 15 16  1  0
 16 17  1  0
  2 18  1  0
 18 19  1  0
 19 20  2  0
 20 21  1  0
 21 22  2  0
 22 23  1  0
 23 24  2  0
 24 25  1  0
 25 26  1  0
 12  4  1  0
 17 13  1  0
 26 18  2  0
 11  6  1  0
 25 21  1  0
  3 27  1  0
  7 28  1  0
  8 29  1  0
  9 30  1  0
 10 31  1  0
 13 32  1  0
 14 33  1  0
 14 34  1  0
 15 35  1  0
 15 36  1  0
 16 37  1  0
 16 38  1  0
 17 39  1  0
 17 40  1  0
 19 41  1  0
 20 42  1  0
 26 43  1  0
M  END
>  <Energy>  (989) 
47.640632612224728

>  <compound_id>  (989) 
51651

>  <target_id>  (989) 
1

>  <reference_id>  (989) 
9

>  <inspiration_ids>  (989) 
[8, 9]

>  <energy_score>  (989) 
-38.65970556944836

>  <distance_score>  (989) 
15.007177103428115

>  <path>  (989) 
/opt/xchem-fragalysis-2/maxwin/BulkDock/SCRATCH/511021/C51651-P9/C51651-P9.minimised.mol

>  <scratch_subdir>  (989) 
/opt/xchem-fragalysis-2/maxwin/BulkDock/SCRATCH/511021/C51651-P9

>  <fragmenstein_runtime>  (989) 
17.95265531539917

>  <fragmenstein_outcome>  (989) 
too moved

>  <fragmenstein_mode>  (989) 
expansion

>  <fragmenstein_error>  (989) 


$$$$
C9236-P8
     RDKit          3D

 50 52  0  0  0  0  0  0  0  0999 V2000
   -2.2980  -16.3180   20.4536 C   0  0  0  0  0  0  0  0  0  0  0  0
   -3.3747  -16.1291   19.3987 C   0  0  0  0  0  0  0  0  0  0  0  0
   -3.9482  -17.5214   18.9710 C   0  0  0  0  0  0  0  0  0  0  0  0
   -3.1476  -14.8692   18.3645 C   0  0  0  0  0  0  0  0  0  0  0  0
   -1.6734  -13.9391   17.7400 C   0  0  0  0  0  0  0  0  0  0  0  0
    0.1107  -13.4215   17.7830 N   0  0  0  0  0  0  0  0  0  0  0  0
    1.9528  -13.6519   18.0199 C   0  0  0  0  0  0  0  0  0  0  0  0
    3.0198  -11.8354   17.9741 C   0  0  0  0  0  0  0  0  0  0  0  0
    3.5813  -11.5019   16.8682 C   0  0  0  0  0  0  0  0  0  0  0  0
    3.3867  -10.1390   16.7229 C   0  0  0  0  0  0  0  0  0  0  0  0
    2.7459   -8.5279   17.2260 C   0  0  0  0  0  0  0  0  0  0  0  0
    2.1685   -8.6575   18.3826 C   0  0  0  0  0  0  0  0  0  0  0  0
    2.3416  -10.0590   18.4627 C   0  0  0  0  0  0  0  0  0  0  0  0
    1.7253   -7.5546   19.0157 N   0  0  0  0  0  0  0  0  0  0  0  0
    2.0804   -6.6010   18.1967 C   0  0  0  0  0  0  0  0  0  0  0  0
    2.7901   -7.0966   17.1126 N   0  0  0  0  0  0  0  0  0  0  0  0
    3.6735   -6.1377   16.4433 C   0  0  0  0  0  0  0  0  0  0  0  0
   -4.3096  -14.8133   17.3676 N   0  0  0  0  0  0  0  0  0  0  0  0
   -5.6904  -14.8384   17.8890 C   0  0  0  0  0  0  0  0  0  0  0  0
   -6.5611  -15.5458   16.8429 C   0  0  0  0  0  0  0  0  0  0  0  0
   -5.6916  -15.5819   15.6074 C   0  0  0  0  0  0  0  0  0  0  0  0
   -4.2938  -15.6982   16.1962 C   0  0  0  0  0  0  0  0  0  0  0  0
   -2.1705  -15.3901   21.0149 H   0  0  0  0  0  0  0  0  0  0  0  0
   -1.3524  -16.6517   20.0380 H   0  0  0  0  0  0  0  0  0  0  0  0
   -2.6009  -17.0729   21.1892 H   0  0  0  0  0  0  0  0  0  0  0  0
   -4.2046  -15.7535   20.0199 H   0  0  0  0  0  0  0  0  0  0  0  0
   -4.2876  -18.0598   19.8653 H   0  0  0  0  0  0  0  0  0  0  0  0
   -4.8223  -17.4430   18.3268 H   0  0  0  0  0  0  0  0  0  0  0  0
   -3.2018  -18.1645   18.5020 H   0  0  0  0  0  0  0  0  0  0  0  0
   -3.4247  -14.0585   19.0628 H   0  0  0  0  0  0  0  0  0  0  0  0
   -1.7944  -14.1242   16.6653 H   0  0  0  0  0  0  0  0  0  0  0  0
   -2.0557  -12.9155   17.8771 H   0  0  0  0  0  0  0  0  0  0  0  0
    0.2334  -13.4929   16.7636 H   0  0  0  0  0  0  0  0  0  0  0  0
    1.9240  -14.3496   17.1906 H   0  0  0  0  0  0  0  0  0  0  0  0
    2.4266  -14.3688   18.7256 H   0  0  0  0  0  0  0  0  0  0  0  0
    3.9941  -11.9698   16.0073 H   0  0  0  0  0  0  0  0  0  0  0  0
    3.4489  -10.4278   15.6486 H   0  0  0  0  0  0  0  0  0  0  0  0
    1.9406   -9.8209   19.4795 H   0  0  0  0  0  0  0  0  0  0  0  0
    1.9170   -5.5432   18.3596 H   0  0  0  0  0  0  0  0  0  0  0  0
    4.6700   -6.2043   16.8859 H   0  0  0  0  0  0  0  0  0  0  0  0
    3.2889   -5.1261   16.6125 H   0  0  0  0  0  0  0  0  0  0  0  0
    3.6605   -6.3012   15.3707 H   0  0  0  0  0  0  0  0  0  0  0  0
   -5.8229  -15.3331   18.8524 H   0  0  0  0  0  0  0  0  0  0  0  0
   -6.0262  -13.8027   18.0135 H   0  0  0  0  0  0  0  0  0  0  0  0
   -7.5070  -15.0252   16.6673 H   0  0  0  0  0  0  0  0  0  0  0  0
   -6.7867  -16.5676   17.1701 H   0  0  0  0  0  0  0  0  0  0  0  0
   -5.9412  -16.4145   14.9433 H   0  0  0  0  0  0  0  0  0  0  0  0
   -5.7919  -14.6462   15.0441 H   0  0  0  0  0  0  0  0  0  0  0  0
   -4.1581  -16.7469   16.4554 H   0  0  0  0  0  0  0  0  0  0  0  0
   -3.5452  -15.3898   15.4646 H   0  0  0  0  0  0  0  0  0  0  0  0
  1  2  1  0
  2  3  1  0
  2  4  1  0
  4  5  1  0
  5  6  1  0
  6  7  1  0
  7  8  1  0
  8  9  2  0
  9 10  1  0
 10 11  2  0
 11 12  1  0
 12 13  2  0
 12 14  1  0
 14 15  2  0
 15 16  1  0
 16 17  1  0
  4 18  1  0
 18 19  1  0
 19 20  1  0
 20 21  1  0
 21 22  1  0
 13  8  1  0
 22 18  1  0
 16 11  1  0
  1 23  1  0
  1 24  1  0
  1 25  1  0
  2 26  1  0
  3 27  1  0
  3 28  1  0
  3 29  1  0
  4 30  1  0
  5 31  1  0
  5 32  1  0
  6 33  1  0
  7 34  1  0
  7 35  1  0
  9 36  1  0
 10 37  1  0
 13 38  1  0
 15 39  1  0
 17 40  1  0
 17 41  1  0
 17 42  1  0
 19 43  1  0
 19 44  1  0
 20 45  1  0
 20 46  1  0
 21 47  1  0
 21 48  1  0
 22 49  1  0
 22 50  1  0
M  END
>  <Energy>  (990) 
728.66686624280089

>  <compound_id>  (990) 
9236

>  <target_id>  (990) 
1

>  <reference_id>  (990) 
8

>  <inspiration_ids>  (990) 
[8, 9]

>  <energy_score>  (990) 
620.4151771712169

>  <distance_score>  (990) 
13.559304054509221

>  <path>  (990) 
/opt/xchem-fragalysis-2/maxwin/BulkDock/SCRATCH/511021/C9236-P8/C9236-P8.minimised.mol

>  <scratch_subdir>  (990) 
/opt/xchem-fragalysis-2/maxwin/BulkDock/SCRATCH/511021/C9236-P8

>  <fragmenstein_runtime>  (990) 
23.7320716381073

>  <fragmenstein_outcome>  (990) 
too moved

>  <fragmenstein_mode>  (990) 
expansion

>  <fragmenstein_error>  (990) 


$$$$
C9236-P9
     RDKit          3D

 50 52  0  0  0  0  0  0  0  0999 V2000
    0.4938  -20.4438   13.5188 C   0  0  0  0  0  0  0  0  0  0  0  0
   -0.9509  -20.4206   12.9987 C   0  0  0  0  0  0  0  0  0  0  0  0
   -1.7140  -21.5752   13.6950 C   0  0  0  0  0  0  0  0  0  0  0  0
   -0.9538  -20.4047   11.4187 C   0  0  0  0  0  0  0  0  0  0  0  0
   -0.1498  -19.0957   10.6403 C   0  0  0  0  0  0  0  0  0  0  0  0
    1.3760  -18.6127   10.6940 N   0  0  0  0  0  0  0  0  0  0  0  0
    1.7934  -17.7546    9.4623 C   0  0  0  0  0  0  0  0  0  0  0  0
    3.0501  -16.7168    9.2838 C   0  0  0  0  0  0  0  0  0  0  0  0
    2.8015  -15.5519    8.5037 C   0  0  0  0  0  0  0  0  0  0  0  0
    3.7359  -14.5190    8.1573 C   0  0  0  0  0  0  0  0  0  0  0  0
    5.0702  -14.7168    8.4933 C   0  0  0  0  0  0  0  0  0  0  0  0
    5.4501  -15.9004    9.1347 C   0  0  0  0  0  0  0  0  0  0  0  0
    4.4349  -16.8834    9.5558 C   0  0  0  0  0  0  0  0  0  0  0  0
    6.8403  -15.9026    9.2531 N   0  0  0  0  0  0  0  0  0  0  0  0
    7.2659  -14.7512    8.7718 C   0  0  0  0  0  0  0  0  0  0  0  0
    6.2331  -13.9947    8.2987 N   0  0  0  0  0  0  0  0  0  0  0  0
    6.3999  -12.6965    7.6713 C   0  0  0  0  0  0  0  0  0  0  0  0
   -2.3213  -20.5684   10.8101 N   0  0  0  0  0  0  0  0  0  0  0  0
   -2.8040  -21.9497   10.6780 C   0  0  0  0  0  0  0  0  0  0  0  0
   -4.2547  -21.7840   10.2568 C   0  0  0  0  0  0  0  0  0  0  0  0
   -4.7123  -20.5295   10.9770 C   0  0  0  0  0  0  0  0  0  0  0  0
   -3.4299  -19.7890   11.3633 C   0  0  0  0  0  0  0  0  0  0  0  0
    0.5146  -20.4325   14.6142 H   0  0  0  0  0  0  0  0  0  0  0  0
    1.0622  -19.5748   13.1846 H   0  0  0  0  0  0  0  0  0  0  0  0
    1.0186  -21.3442   13.1818 H   0  0  0  0  0  0  0  0  0  0  0  0
   -1.4107  -19.4939   13.3522 H   0  0  0  0  0  0  0  0  0  0  0  0
   -1.3750  -22.5506   13.3340 H   0  0  0  0  0  0  0  0  0  0  0  0
   -2.7824  -21.4687   13.5438 H   0  0  0  0  0  0  0  0  0  0  0  0
   -1.5510  -21.5462   14.7783 H   0  0  0  0  0  0  0  0  0  0  0  0
   -0.3584  -21.2678   11.0874 H   0  0  0  0  0  0  0  0  0  0  0  0
   -0.2996  -19.3200    9.5751 H   0  0  0  0  0  0  0  0  0  0  0  0
   -0.7405  -18.1995   10.8549 H   0  0  0  0  0  0  0  0  0  0  0  0
    1.4884  -18.0123   11.5220 H   0  0  0  0  0  0  0  0  0  0  0  0
    0.9110  -17.1359    9.2633 H   0  0  0  0  0  0  0  0  0  0  0  0
    1.8956  -18.4566    8.6257 H   0  0  0  0  0  0  0  0  0  0  0  0
    1.8041  -15.4373    8.0806 H   0  0  0  0  0  0  0  0  0  0  0  0
    3.4040  -13.6534    7.5926 H   0  0  0  0  0  0  0  0  0  0  0  0
    4.7789  -17.7872   10.0519 H   0  0  0  0  0  0  0  0  0  0  0  0
    8.2983  -14.4288    8.7322 H   0  0  0  0  0  0  0  0  0  0  0  0
    7.3554  -12.2575    7.9666 H   0  0  0  0  0  0  0  0  0  0  0  0
    5.5646  -12.0532    7.9532 H   0  0  0  0  0  0  0  0  0  0  0  0
    6.3905  -12.8564    6.5895 H   0  0  0  0  0  0  0  0  0  0  0  0
   -2.2371  -22.4962    9.9173 H   0  0  0  0  0  0  0  0  0  0  0  0
   -2.7612  -22.5226   11.6038 H   0  0  0  0  0  0  0  0  0  0  0  0
   -4.3177  -21.6311    9.1724 H   0  0  0  0  0  0  0  0  0  0  0  0
   -4.8623  -22.6574   10.5108 H   0  0  0  0  0  0  0  0  0  0  0  0
   -5.2899  -20.7828   11.8715 H   0  0  0  0  0  0  0  0  0  0  0  0
   -5.3531  -19.9204   10.3306 H   0  0  0  0  0  0  0  0  0  0  0  0
   -3.4286  -18.7839   10.9294 H   0  0  0  0  0  0  0  0  0  0  0  0
   -3.4075  -19.6735   12.4491 H   0  0  0  0  0  0  0  0  0  0  0  0
  1  2  1  0
  2  3  1  0
  2  4  1  0
  4  5  1  0
  5  6  1  0
  6  7  1  0
  7  8  1  0
  8  9  2  0
  9 10  1  0
 10 11  2  0
 11 12  1  0
 12 13  2  0
 12 14  1  0
 14 15  2  0
 15 16  1  0
 16 17  1  0
  4 18  1  0
 18 19  1  0
 19 20  1  0
 20 21  1  0
 21 22  1  0
 13  8  1  0
 22 18  1  0
 16 11  1  0
  1 23  1  0
  1 24  1  0
  1 25  1  0
  2 26  1  0
  3 27  1  0
  3 28  1  0
  3 29  1  0
  4 30  1  0
  5 31  1  0
  5 32  1  0
  6 33  1  0
  7 34  1  0
  7 35  1  0
  9 36  1  0
 10 37  1  0
 13 38  1  0
 15 39  1  0
 17 40  1  0
 17 41  1  0
 17 42  1  0
 19 43  1  0
 19 44  1  0
 20 45  1  0
 20 46  1  0
 21 47  1  0
 21 48  1  0
 22 49  1  0
 22 50  1  0
M  END
>  <Energy>  (991) 
104.82321325382865

>  <compound_id>  (991) 
9236

>  <target_id>  (991) 
1

>  <reference_id>  (991) 
9

>  <inspiration_ids>  (991) 
[8, 9]

>  <energy_score>  (991) 
-3.4284758177635126

>  <distance_score>  (991) 
15.390739292401049

>  <path>  (991) 
/opt/xchem-fragalysis-2/maxwin/BulkDock/SCRATCH/511021/C9236-P9/C9236-P9.minimised.mol

>  <scratch_subdir>  (991) 
/opt/xchem-fragalysis-2/maxwin/BulkDock/SCRATCH/511021/C9236-P9

>  <fragmenstein_runtime>  (991) 
28.68271541595459

>  <fragmenstein_outcome>  (991) 
too moved

>  <fragmenstein_mode>  (991) 
expansion

>  <fragmenstein_error>  (991) 


$$$$
C46375-P53
     RDKit          3D

 49 50  0  0  0  0  0  0  0  0999 V2000
   -0.2764   -8.6598   30.0420 C   0  0  0  0  0  0  0  0  0  0  0  0
   -0.7263   -7.4918   30.9054 C   0  0  0  0  0  0  0  0  0  0  0  0
   -0.7776   -7.9098   32.3638 C   0  0  0  0  0  0  0  0  0  0  0  0
    0.3912   -6.0619   30.6594 S   0  0  0  0  0  0  0  0  0  0  0  0
   -0.6055   -4.7483   31.4736 C   0  0  0  0  0  0  0  0  0  0  0  0
    0.0957   -4.2478   32.7329 C   0  0  0  0  0  0  0  0  0  0  0  0
   -0.9752   -3.6328   30.4666 C   0  0  0  0  0  0  0  0  0  0  0  0
   -2.0230   -3.5416   29.9951 O   0  0  0  0  0  0  0  0  0  0  0  0
    0.3446   -2.7233   30.3713 N   0  0  0  0  0  0  0  0  0  0  0  0
    0.6627   -1.5370   29.8417 C   0  0  0  0  0  0  0  0  0  0  0  0
   -0.2018   -0.3422   30.6630 C   0  0  0  0  0  0  0  0  0  0  0  0
   -0.6779   -0.1436   29.3315 C   0  0  0  0  0  0  0  0  0  0  0  0
   -0.4185    1.1510   28.7910 N   0  0  0  0  0  0  0  0  0  0  0  0
    0.7928    1.9079   28.7059 C   0  0  0  0  0  0  0  0  0  0  0  0
    1.8871    1.6828   29.1372 O   0  0  0  0  0  0  0  0  0  0  0  0
    0.5461    3.2269   27.9774 C   0  0  0  0  0  0  0  0  0  0  0  0
    0.2976    3.0219   26.4874 C   0  0  0  0  0  0  0  0  0  0  0  0
   -1.1473    2.9340   26.1418 C   0  0  0  0  0  0  0  0  0  0  0  0
   -1.8400    3.6005   25.1574 C   0  0  0  0  0  0  0  0  0  0  0  0
   -3.1423    3.2194   25.3130 N   0  0  0  0  0  0  0  0  0  0  0  0
   -3.1907    2.3369   26.3527 C   0  0  0  0  0  0  0  0  0  0  0  0
   -1.9976    2.1214   26.8578 N   0  0  0  0  0  0  0  0  0  0  0  0
    0.4673   -1.2301   29.1558 C   0  0  0  0  0  0  0  0  0  0  0  0
    0.8066   -8.7350   29.9892 H   0  0  0  0  0  0  0  0  0  0  0  0
   -0.6871   -9.6055   30.4077 H   0  0  0  0  0  0  0  0  0  0  0  0
   -0.6243   -8.5490   29.0208 H   0  0  0  0  0  0  0  0  0  0  0  0
   -1.7254   -7.1786   30.5885 H   0  0  0  0  0  0  0  0  0  0  0  0
    0.1941   -8.2529   32.7279 H   0  0  0  0  0  0  0  0  0  0  0  0
   -1.1158   -7.0998   33.0167 H   0  0  0  0  0  0  0  0  0  0  0  0
   -1.5053   -8.7159   32.4759 H   0  0  0  0  0  0  0  0  0  0  0  0
   -1.5666   -5.1724   31.7880 H   0  0  0  0  0  0  0  0  0  0  0  0
    1.1189   -3.9072   32.5396 H   0  0  0  0  0  0  0  0  0  0  0  0
   -0.4532   -3.4042   33.1664 H   0  0  0  0  0  0  0  0  0  0  0  0
    0.1471   -5.0337   33.4942 H   0  0  0  0  0  0  0  0  0  0  0  0
    1.9898   -1.6855   29.7945 H   0  0  0  0  0  0  0  0  0  0  0  0
    1.2402   -1.3830   30.9027 H   0  0  0  0  0  0  0  0  0  0  0  0
    0.4246    0.4553   31.0826 H   0  0  0  0  0  0  0  0  0  0  0  0
   -0.9253   -0.7477   31.3784 H   0  0  0  0  0  0  0  0  0  0  0  0
   -1.6930   -0.4966   29.1264 H   0  0  0  0  0  0  0  0  0  0  0  0
   -1.1434    1.6150   28.2278 H   0  0  0  0  0  0  0  0  0  0  0  0
   -0.2643    3.7736   28.4740 H   0  0  0  0  0  0  0  0  0  0  0  0
    1.4546    3.8300   28.1041 H   0  0  0  0  0  0  0  0  0  0  0  0
    0.8097    2.1238   26.1287 H   0  0  0  0  0  0  0  0  0  0  0  0
    0.7300    3.8718   25.9442 H   0  0  0  0  0  0  0  0  0  0  0  0
   -1.5429    4.3176   24.4056 H   0  0  0  0  0  0  0  0  0  0  0  0
   -3.9282    3.5053   24.7423 H   0  0  0  0  0  0  0  0  0  0  0  0
   -4.1191    1.8941   26.6845 H   0  0  0  0  0  0  0  0  0  0  0  0
    1.3852   -0.9498   28.3396 H   0  0  0  0  0  0  0  0  0  0  0  0
   -0.0930   -1.7932   28.2136 H   0  0  0  0  0  0  0  0  0  0  0  0
  1  2  1  0
  2  3  1  0
  2  4  1  0
  4  5  1  0
  5  6  1  0
  5  7  1  0
  7  8  2  0
  7  9  1  0
  9 10  1  0
 10 11  1  0
 11 12  1  0
 12 13  1  0
 13 14  1  0
 14 15  2  0
 14 16  1  0
 16 17  1  0
 17 18  1  0
 18 19  2  0
 19 20  1  0
 20 21  1  0
 21 22  2  0
 12 23  1  0
 23  9  1  0
 22 18  1  0
  1 24  1  0
  1 25  1  0
  1 26  1  0
  2 27  1  0
  3 28  1  0
  3 29  1  0
  3 30  1  0
  5 31  1  0
  6 32  1  0
  6 33  1  0
  6 34  1  0
 10 35  1  0
 10 36  1  0
 11 37  1  0
 11 38  1  0
 12 39  1  0
 13 40  1  0
 16 41  1  0
 16 42  1  0
 17 43  1  0
 17 44  1  0
 19 45  1  0
 20 46  1  0
 21 47  1  0
 23 48  1  0
 23 49  1  0
M  END
>  <Energy>  (992) 
733.25741584967523

>  <compound_id>  (992) 
46375

>  <target_id>  (992) 
1

>  <reference_id>  (992) 
53

>  <inspiration_ids>  (992) 
[53, 116]

>  <energy_score>  (992) 
672.848041899698

>  <distance_score>  (992) 
6.075530981939351

>  <path>  (992) 
/opt/xchem-fragalysis-2/maxwin/BulkDock/SCRATCH/511021/C46375-P53/C46375-P53.minimised.mol

>  <scratch_subdir>  (992) 
/opt/xchem-fragalysis-2/maxwin/BulkDock/SCRATCH/511021/C46375-P53

>  <fragmenstein_runtime>  (992) 
32.710270166397095

>  <fragmenstein_outcome>  (992) 
too moved

>  <fragmenstein_mode>  (992) 
expansion

>  <fragmenstein_error>  (992) 


$$$$
C46375-P116
     RDKit          3D

 49 50  0  0  0  0  0  0  0  0999 V2000
   -1.2276  -12.0505   19.4161 C   0  0  0  0  0  0  0  0  0  0  0  0
   -0.7868  -10.5887   19.5451 C   0  0  0  0  0  0  0  0  0  0  0  0
    0.4680  -10.5568   20.4023 C   0  0  0  0  0  0  0  0  0  0  0  0
   -2.2487   -9.6386   20.1363 S   0  0  0  0  0  0  0  0  0  0  0  0
   -1.6630   -7.8808   20.2920 C   0  0  0  0  0  0  0  0  0  0  0  0
   -1.4038   -7.2788   18.9160 C   0  0  0  0  0  0  0  0  0  0  0  0
   -2.7923   -7.0596   20.9966 C   0  0  0  0  0  0  0  0  0  0  0  0
   -3.9044   -7.1319   20.6739 O   0  0  0  0  0  0  0  0  0  0  0  0
   -2.0290   -6.1218   22.0797 N   0  0  0  0  0  0  0  0  0  0  0  0
   -2.5311   -4.6278   23.1673 C   0  0  0  0  0  0  0  0  0  0  0  0
   -3.3672   -4.6251   24.5322 C   0  0  0  0  0  0  0  0  0  0  0  0
   -2.6109   -5.8649   24.7409 C   0  0  0  0  0  0  0  0  0  0  0  0
   -2.1975   -6.1603   26.2832 N   0  0  0  0  0  0  0  0  0  0  0  0
   -3.0918   -6.3153   27.5807 C   0  0  0  0  0  0  0  0  0  0  0  0
   -4.2971   -6.1675   27.7347 O   0  0  0  0  0  0  0  0  0  0  0  0
   -2.4243   -6.5860   28.9326 C   0  0  0  0  0  0  0  0  0  0  0  0
   -2.7091   -5.4201   29.9128 C   0  0  0  0  0  0  0  0  0  0  0  0
   -2.6652   -5.6706   31.3729 C   0  0  0  0  0  0  0  0  0  0  0  0
   -2.5938   -4.7046   32.3583 C   0  0  0  0  0  0  0  0  0  0  0  0
   -2.6429   -5.3974   33.5295 N   0  0  0  0  0  0  0  0  0  0  0  0
   -2.7551   -6.7257   33.2219 C   0  0  0  0  0  0  0  0  0  0  0  0
   -2.7877   -6.9222   31.9240 N   0  0  0  0  0  0  0  0  0  0  0  0
   -2.6814   -5.3044   22.9340 C   0  0  0  0  0  0  0  0  0  0  0  0
   -2.1171  -12.1500   18.7835 H   0  0  0  0  0  0  0  0  0  0  0  0
   -1.4364  -12.5161   20.3821 H   0  0  0  0  0  0  0  0  0  0  0  0
   -0.4353  -12.6414   18.9413 H   0  0  0  0  0  0  0  0  0  0  0  0
   -0.5472  -10.2121   18.5451 H   0  0  0  0  0  0  0  0  0  0  0  0
    0.8151   -9.5381   20.5907 H   0  0  0  0  0  0  0  0  0  0  0  0
    0.3135  -11.1029   21.3314 H   0  0  0  0  0  0  0  0  0  0  0  0
    1.2859  -11.0680   19.8798 H   0  0  0  0  0  0  0  0  0  0  0  0
   -0.7443   -7.8167   20.8737 H   0  0  0  0  0  0  0  0  0  0  0  0
   -0.5853   -7.7911   18.4008 H   0  0  0  0  0  0  0  0  0  0  0  0
   -1.1232   -6.2234   19.0099 H   0  0  0  0  0  0  0  0  0  0  0  0
   -2.2946   -7.3165   18.2787 H   0  0  0  0  0  0  0  0  0  0  0  0
   -2.8661   -3.6139   22.4816 H   0  0  0  0  0  0  0  0  0  0  0  0
   -1.4309   -4.1251   23.3195 H   0  0  0  0  0  0  0  0  0  0  0  0
   -3.2414   -3.6783   25.0435 H   0  0  0  0  0  0  0  0  0  0  0  0
   -4.4458   -4.7531   24.3521 H   0  0  0  0  0  0  0  0  0  0  0  0
   -1.5260   -5.9944   24.5401 H   0  0  0  0  0  0  0  0  0  0  0  0
   -1.2552   -6.4365   26.4930 H   0  0  0  0  0  0  0  0  0  0  0  0
   -3.0720   -7.3420   29.3590 H   0  0  0  0  0  0  0  0  0  0  0  0
   -1.4689   -7.0775   28.9523 H   0  0  0  0  0  0  0  0  0  0  0  0
   -2.0657   -4.5638   29.6938 H   0  0  0  0  0  0  0  0  0  0  0  0
   -3.7464   -5.0799   29.7746 H   0  0  0  0  0  0  0  0  0  0  0  0
   -2.5137   -3.6287   32.3171 H   0  0  0  0  0  0  0  0  0  0  0  0
   -2.6117   -5.0122   34.4624 H   0  0  0  0  0  0  0  0  0  0  0  0
   -2.8145   -7.4953   33.9796 H   0  0  0  0  0  0  0  0  0  0  0  0
   -3.4459   -6.2491   22.9956 H   0  0  0  0  0  0  0  0  0  0  0  0
   -3.8804   -5.1098   22.2738 H   0  0  0  0  0  0  0  0  0  0  0  0
  1  2  1  0
  2  3  1  0
  2  4  1  0
  4  5  1  0
  5  6  1  0
  5  7  1  0
  7  8  2  0
  7  9  1  0
  9 10  1  0
 10 11  1  0
 11 12  1  0
 12 13  1  0
 13 14  1  0
 14 15  2  0
 14 16  1  0
 16 17  1  0
 17 18  1  0
 18 19  2  0
 19 20  1  0
 20 21  1  0
 21 22  2  0
 12 23  1  0
 23  9  1  0
 22 18  1  0
  1 24  1  0
  1 25  1  0
  1 26  1  0
  2 27  1  0
  3 28  1  0
  3 29  1  0
  3 30  1  0
  5 31  1  0
  6 32  1  0
  6 33  1  0
  6 34  1  0
 10 35  1  0
 10 36  1  0
 11 37  1  0
 11 38  1  0
 12 39  1  0
 13 40  1  0
 16 41  1  0
 16 42  1  0
 17 43  1  0
 17 44  1  0
 19 45  1  0
 20 46  1  0
 21 47  1  0
 23 48  1  0
 23 49  1  0
M  END
>  <Energy>  (993) 
909.90614746408767

>  <compound_id>  (993) 
46375

>  <target_id>  (993) 
1

>  <reference_id>  (993) 
116

>  <inspiration_ids>  (993) 
[53, 116]

>  <energy_score>  (993) 
849.496773514113

>  <distance_score>  (993) 
10.97812880649515

>  <path>  (993) 
/opt/xchem-fragalysis-2/maxwin/BulkDock/SCRATCH/511021/C46375-P116/C46375-P116.minimised.mol

>  <scratch_subdir>  (993) 
/opt/xchem-fragalysis-2/maxwin/BulkDock/SCRATCH/511021/C46375-P116

>  <fragmenstein_runtime>  (993) 
21.1348774433136

>  <fragmenstein_outcome>  (993) 
too moved

>  <fragmenstein_mode>  (993) 
expansion

>  <fragmenstein_error>  (993) 


$$$$
C18082-P53
     RDKit          3D

 47 48  0  0  0  0  0  0  0  0999 V2000
    1.4968   -1.6930   28.6102 C   0  0  0  0  0  0  0  0  0  0  0  0
    0.0609   -2.1429   28.9254 C   0  0  0  0  0  0  0  0  0  0  0  0
   -0.8568   -0.9360   28.6110 C   0  0  0  0  0  0  0  0  0  0  0  0
    0.0105   -2.6621   30.3134 N   0  0  0  0  0  0  0  0  0  0  0  0
   -1.2158   -2.3730   31.0416 C   0  0  0  0  0  0  0  0  0  0  0  0
    0.5772   -4.0356   30.5788 C   0  0  0  0  0  0  0  0  0  0  0  0
   -0.4774   -5.2184   30.6535 C   0  0  0  0  0  0  0  0  0  0  0  0
   -1.1151   -5.3758   31.6574 O   0  0  0  0  0  0  0  0  0  0  0  0
   -0.5521   -5.8892   29.3731 N   0  0  0  0  0  0  0  0  0  0  0  0
   -1.6006   -7.0158   28.8046 C   0  0  0  0  0  0  0  0  0  0  0  0
   -2.3128   -7.0211   27.0316 C   0  0  0  0  0  0  0  0  0  0  0  0
   -1.7819   -5.4020   26.2072 C   0  0  0  0  0  0  0  0  0  0  0  0
   -1.5724   -5.6652   24.7375 C   0  0  0  0  0  0  0  0  0  0  0  0
   -1.7419   -7.1217   25.0437 C   0  0  0  0  0  0  0  0  0  0  0  0
   -2.5971   -8.3992   26.1095 N   0  0  0  0  0  0  0  0  0  0  0  0
   -2.0631  -10.2343   26.3995 C   0  0  0  0  0  0  0  0  0  0  0  0
   -1.2921  -10.5301   27.3608 O   0  0  0  0  0  0  0  0  0  0  0  0
   -2.6462  -11.7600   25.6006 C   0  0  0  0  0  0  0  0  0  0  0  0
   -3.5419  -12.2149   26.4047 N   0  0  0  0  0  0  0  0  0  0  0  0
   -2.7239  -12.4259   27.3352 C   0  0  0  0  0  0  0  0  0  0  0  0
   -2.0798  -13.5465   26.7691 C   0  0  0  0  0  0  0  0  0  0  0  0
   -1.8589  -12.9549   25.6280 N   0  0  0  0  0  0  0  0  0  0  0  0
    1.5690   -1.2916   27.5942 H   0  0  0  0  0  0  0  0  0  0  0  0
    2.2039   -2.5258   28.6779 H   0  0  0  0  0  0  0  0  0  0  0  0
    1.8291   -0.9106   29.3021 H   0  0  0  0  0  0  0  0  0  0  0  0
   -0.2243   -2.9491   28.2408 H   0  0  0  0  0  0  0  0  0  0  0  0
   -1.9132   -1.1993   28.7274 H   0  0  0  0  0  0  0  0  0  0  0  0
   -0.6333   -0.0804   29.2574 H   0  0  0  0  0  0  0  0  0  0  0  0
   -0.7232   -0.6127   27.5724 H   0  0  0  0  0  0  0  0  0  0  0  0
   -1.3922   -1.2956   31.1230 H   0  0  0  0  0  0  0  0  0  0  0  0
   -2.0881   -2.8377   30.5742 H   0  0  0  0  0  0  0  0  0  0  0  0
   -1.1472   -2.7286   32.0759 H   0  0  0  0  0  0  0  0  0  0  0  0
    1.3684   -4.2802   29.8625 H   0  0  0  0  0  0  0  0  0  0  0  0
    1.0691   -4.0073   31.5596 H   0  0  0  0  0  0  0  0  0  0  0  0
    0.0857   -5.4390   28.7259 H   0  0  0  0  0  0  0  0  0  0  0  0
   -2.2137   -7.3048   29.6355 H   0  0  0  0  0  0  0  0  0  0  0  0
   -2.0640   -6.1192   28.5378 H   0  0  0  0  0  0  0  0  0  0  0  0
   -3.3232   -7.0957   27.3412 H   0  0  0  0  0  0  0  0  0  0  0  0
   -1.1794   -4.7271   26.8927 H   0  0  0  0  0  0  0  0  0  0  0  0
   -2.4149   -4.6160   25.9365 H   0  0  0  0  0  0  0  0  0  0  0  0
   -2.2869   -5.3075   23.9770 H   0  0  0  0  0  0  0  0  0  0  0  0
   -0.7047   -5.2122   24.2398 H   0  0  0  0  0  0  0  0  0  0  0  0
   -2.6241   -6.7743   25.2965 H   0  0  0  0  0  0  0  0  0  0  0  0
   -1.6321   -7.2846   24.0006 H   0  0  0  0  0  0  0  0  0  0  0  0
   -2.8870  -12.1078   28.3696 H   0  0  0  0  0  0  0  0  0  0  0  0
   -1.6094  -14.3949   27.2448 H   0  0  0  0  0  0  0  0  0  0  0  0
   -0.9681  -12.7677   25.2325 H   0  0  0  0  0  0  0  0  0  0  0  0
  1  2  1  0
  2  3  1  0
  2  4  1  0
  4  5  1  0
  4  6  1  0
  6  7  1  0
  7  8  2  0
  7  9  1  0
  9 10  1  0
 10 11  1  0
 11 12  1  0
 12 13  1  0
 13 14  1  0
 14 15  1  0
 15 16  1  0
 16 17  2  0
 16 18  1  0
 18 19  2  0
 19 20  1  0
 20 21  2  0
 21 22  1  0
 15 11  1  0
 22 18  1  0
  1 23  1  0
  1 24  1  0
  1 25  1  0
  2 26  1  0
  3 27  1  0
  3 28  1  0
  3 29  1  0
  5 30  1  0
  5 31  1  0
  5 32  1  0
  6 33  1  0
  6 34  1  0
  9 35  1  0
 10 36  1  0
 10 37  1  0
 11 38  1  0
 12 39  1  0
 12 40  1  0
 13 41  1  0
 13 42  1  0
 14 43  1  0
 14 44  1  0
 20 45  1  0
 21 46  1  0
 22 47  1  0
M  END
>  <Energy>  (994) 
754.68910643740901

>  <compound_id>  (994) 
18082

>  <target_id>  (994) 
1

>  <reference_id>  (994) 
53

>  <inspiration_ids>  (994) 
[53, 116]

>  <energy_score>  (994) 
631.8690553349791

>  <distance_score>  (994) 
5.564949614633034

>  <path>  (994) 
/opt/xchem-fragalysis-2/maxwin/BulkDock/SCRATCH/511021/C18082-P53/C18082-P53.minimised.mol

>  <scratch_subdir>  (994) 
/opt/xchem-fragalysis-2/maxwin/BulkDock/SCRATCH/511021/C18082-P53

>  <fragmenstein_runtime>  (994) 
18.88429021835327

>  <fragmenstein_outcome>  (994) 
too moved

>  <fragmenstein_mode>  (994) 
expansion

>  <fragmenstein_error>  (994) 


$$$$
C18082-P116
     RDKit          3D

 47 48  0  0  0  0  0  0  0  0999 V2000
    1.3106    1.0486   27.7295 C   0  0  0  0  0  0  0  0  0  0  0  0
   -0.0414    1.7095   27.4342 C   0  0  0  0  0  0  0  0  0  0  0  0
   -0.3400    2.7420   28.5209 C   0  0  0  0  0  0  0  0  0  0  0  0
   -1.1077    0.7276   27.1556 N   0  0  0  0  0  0  0  0  0  0  0  0
   -2.3262    1.3913   26.6779 C   0  0  0  0  0  0  0  0  0  0  0  0
   -1.4142   -0.2960   28.1919 C   0  0  0  0  0  0  0  0  0  0  0  0
   -1.9317   -1.6751   27.5738 C   0  0  0  0  0  0  0  0  0  0  0  0
   -2.7342   -1.6678   26.6863 O   0  0  0  0  0  0  0  0  0  0  0  0
   -1.2281   -2.7812   28.2074 N   0  0  0  0  0  0  0  0  0  0  0  0
   -1.2058   -4.2450   27.8894 C   0  0  0  0  0  0  0  0  0  0  0  0
   -1.3505   -5.6139   26.6548 C   0  0  0  0  0  0  0  0  0  0  0  0
   -0.8630   -5.8457   25.2176 C   0  0  0  0  0  0  0  0  0  0  0  0
   -1.7632   -6.9081   25.0987 C   0  0  0  0  0  0  0  0  0  0  0  0
   -2.3894   -7.3247   26.4587 C   0  0  0  0  0  0  0  0  0  0  0  0
   -1.2912   -7.2350   27.2283 N   0  0  0  0  0  0  0  0  0  0  0  0
   -0.4212   -8.2916   26.9422 C   0  0  0  0  0  0  0  0  0  0  0  0
    0.4265   -8.3066   26.1579 O   0  0  0  0  0  0  0  0  0  0  0  0
   -0.3918   -9.6273   27.7884 C   0  0  0  0  0  0  0  0  0  0  0  0
   -0.5268   -9.6731   29.1061 N   0  0  0  0  0  0  0  0  0  0  0  0
   -0.2680  -10.9749   29.4651 C   0  0  0  0  0  0  0  0  0  0  0  0
   -0.0409  -11.7522   28.3573 C   0  0  0  0  0  0  0  0  0  0  0  0
   -0.1210  -10.8914   27.2989 N   0  0  0  0  0  0  0  0  0  0  0  0
    2.1185    1.7852   27.6517 H   0  0  0  0  0  0  0  0  0  0  0  0
    1.5304    0.2472   27.0180 H   0  0  0  0  0  0  0  0  0  0  0  0
    1.3532    0.6251   28.7383 H   0  0  0  0  0  0  0  0  0  0  0  0
    0.1128    2.2688   26.5008 H   0  0  0  0  0  0  0  0  0  0  0  0
   -1.2737    3.2807   28.3381 H   0  0  0  0  0  0  0  0  0  0  0  0
   -0.3857    2.2640   29.5029 H   0  0  0  0  0  0  0  0  0  0  0  0
    0.4576    3.4927   28.5623 H   0  0  0  0  0  0  0  0  0  0  0  0
   -2.8567    1.9115   27.4799 H   0  0  0  0  0  0  0  0  0  0  0  0
   -2.0916    2.1211   25.8943 H   0  0  0  0  0  0  0  0  0  0  0  0
   -3.0139    0.6833   26.2172 H   0  0  0  0  0  0  0  0  0  0  0  0
   -0.5112   -0.5052   28.7701 H   0  0  0  0  0  0  0  0  0  0  0  0
   -2.1629    0.0639   28.9061 H   0  0  0  0  0  0  0  0  0  0  0  0
   -0.6853   -2.4275   28.9805 H   0  0  0  0  0  0  0  0  0  0  0  0
   -0.3136   -3.9119   27.4456 H   0  0  0  0  0  0  0  0  0  0  0  0
   -1.2140   -4.7228   28.8316 H   0  0  0  0  0  0  0  0  0  0  0  0
   -0.4217   -5.1961   26.5500 H   0  0  0  0  0  0  0  0  0  0  0  0
   -1.0827   -5.2160   24.3578 H   0  0  0  0  0  0  0  0  0  0  0  0
    0.1595   -6.1978   25.0287 H   0  0  0  0  0  0  0  0  0  0  0  0
   -2.2361   -6.5987   24.1676 H   0  0  0  0  0  0  0  0  0  0  0  0
   -1.1598   -7.7268   24.8812 H   0  0  0  0  0  0  0  0  0  0  0  0
   -3.1979   -7.1604   27.1038 H   0  0  0  0  0  0  0  0  0  0  0  0
   -2.5672   -8.3278   26.1109 H   0  0  0  0  0  0  0  0  0  0  0  0
   -0.2590  -11.2747   30.5052 H   0  0  0  0  0  0  0  0  0  0  0  0
    0.1718  -12.8037   28.2294 H   0  0  0  0  0  0  0  0  0  0  0  0
   -0.0612  -11.1281   26.3113 H   0  0  0  0  0  0  0  0  0  0  0  0
  1  2  1  0
  2  3  1  0
  2  4  1  0
  4  5  1  0
  4  6  1  0
  6  7  1  0
  7  8  2  0
  7  9  1  0
  9 10  1  0
 10 11  1  0
 11 12  1  0
 12 13  1  0
 13 14  1  0
 14 15  1  0
 15 16  1  0
 16 17  2  0
 16 18  1  0
 18 19  2  0
 19 20  1  0
 20 21  2  0
 21 22  1  0
 15 11  1  0
 22 18  1  0
  1 23  1  0
  1 24  1  0
  1 25  1  0
  2 26  1  0
  3 27  1  0
  3 28  1  0
  3 29  1  0
  5 30  1  0
  5 31  1  0
  5 32  1  0
  6 33  1  0
  6 34  1  0
  9 35  1  0
 10 36  1  0
 10 37  1  0
 11 38  1  0
 12 39  1  0
 12 40  1  0
 13 41  1  0
 13 42  1  0
 14 43  1  0
 14 44  1  0
 20 45  1  0
 21 46  1  0
 22 47  1  0
M  END
>  <Energy>  (995) 
383.34656988136737

>  <compound_id>  (995) 
18082

>  <target_id>  (995) 
1

>  <reference_id>  (995) 
116

>  <inspiration_ids>  (995) 
[53, 116]

>  <energy_score>  (995) 
260.526518778939

>  <distance_score>  (995) 
2.8781322556884943

>  <path>  (995) 
/opt/xchem-fragalysis-2/maxwin/BulkDock/SCRATCH/511021/C18082-P116/C18082-P116.minimised.mol

>  <scratch_subdir>  (995) 
/opt/xchem-fragalysis-2/maxwin/BulkDock/SCRATCH/511021/C18082-P116

>  <fragmenstein_runtime>  (995) 
13.218409776687622

>  <fragmenstein_outcome>  (995) 
too moved

>  <fragmenstein_mode>  (995) 
expansion

>  <fragmenstein_error>  (995) 


$$$$
C18083-P53
     RDKit          3D

 50 51  0  0  0  0  0  0  0  0999 V2000
    1.8786   -0.1132   30.4796 C   0  0  0  0  0  0  0  0  0  0  0  0
    0.3451   -0.1698   30.5049 C   0  0  0  0  0  0  0  0  0  0  0  0
   -0.1463    0.5991   29.2527 C   0  0  0  0  0  0  0  0  0  0  0  0
   -0.1365   -1.5927   30.6330 N   0  0  0  0  0  0  0  0  0  0  0  0
   -1.5579   -1.6780   30.2694 C   0  0  0  0  0  0  0  0  0  0  0  0
    0.1486   -2.1649   32.0127 C   0  0  0  0  0  0  0  0  0  0  0  0
   -0.5326   -3.5704   32.3506 C   0  0  0  0  0  0  0  0  0  0  0  0
   -1.7358   -3.5952   32.3954 O   0  0  0  0  0  0  0  0  0  0  0  0
    0.4514   -4.6515   32.4898 N   0  0  0  0  0  0  0  0  0  0  0  0
    0.2687   -6.1415   32.6320 C   0  0  0  0  0  0  0  0  0  0  0  0
    0.6646   -7.0277   31.2955 C   0  0  0  0  0  0  0  0  0  0  0  0
    1.0245   -6.1133   30.1716 C   0  0  0  0  0  0  0  0  0  0  0  0
   -0.3874   -5.7669   29.9386 C   0  0  0  0  0  0  0  0  0  0  0  0
   -1.1431   -7.0384   30.3874 C   0  0  0  0  0  0  0  0  0  0  0  0
   -0.3151   -8.2028   30.7843 N   0  0  0  0  0  0  0  0  0  0  0  0
   -0.1752   -9.1801   29.6096 C   0  0  0  0  0  0  0  0  0  0  0  0
    0.6609   -9.2369   28.7394 O   0  0  0  0  0  0  0  0  0  0  0  0
   -1.3763  -10.3705   29.7427 C   0  0  0  0  0  0  0  0  0  0  0  0
   -2.3007  -11.6316   28.6625 C   0  0  0  0  0  0  0  0  0  0  0  0
   -2.2802  -12.9550   28.9652 N   0  0  0  0  0  0  0  0  0  0  0  0
   -1.7504  -14.0666   27.7074 C   0  0  0  0  0  0  0  0  0  0  0  0
   -2.0939  -13.2562   26.6310 C   0  0  0  0  0  0  0  0  0  0  0  0
   -2.5881  -11.9042   27.1788 N   0  0  0  0  0  0  0  0  0  0  0  0
    2.2322    0.9173   30.3623 H   0  0  0  0  0  0  0  0  0  0  0  0
    2.2829   -0.7044   29.6502 H   0  0  0  0  0  0  0  0  0  0  0  0
    2.3148   -0.4892   31.4099 H   0  0  0  0  0  0  0  0  0  0  0  0
   -0.0083    0.3969   31.3769 H   0  0  0  0  0  0  0  0  0  0  0  0
    0.0929    0.0523   28.3338 H   0  0  0  0  0  0  0  0  0  0  0  0
    0.3296    1.5844   29.1904 H   0  0  0  0  0  0  0  0  0  0  0  0
   -1.2254    0.7778   29.2848 H   0  0  0  0  0  0  0  0  0  0  0  0
   -1.8927   -2.7172   30.2351 H   0  0  0  0  0  0  0  0  0  0  0  0
   -1.7414   -1.3280   29.2489 H   0  0  0  0  0  0  0  0  0  0  0  0
   -2.1938   -1.1152   30.9609 H   0  0  0  0  0  0  0  0  0  0  0  0
    1.2306   -2.2671   32.1336 H   0  0  0  0  0  0  0  0  0  0  0  0
   -0.2073   -1.4696   32.7837 H   0  0  0  0  0  0  0  0  0  0  0  0
    1.3844   -4.2541   32.4798 H   0  0  0  0  0  0  0  0  0  0  0  0
   -0.7609   -6.3294   32.9480 H   0  0  0  0  0  0  0  0  0  0  0  0
    0.9300   -6.4501   33.4489 H   0  0  0  0  0  0  0  0  0  0  0  0
    1.5531   -7.5593   31.6083 H   0  0  0  0  0  0  0  0  0  0  0  0
    1.6598   -5.2639   30.4304 H   0  0  0  0  0  0  0  0  0  0  0  0
    1.5237   -6.6509   29.3683 H   0  0  0  0  0  0  0  0  0  0  0  0
   -0.6143   -5.3495   28.9713 H   0  0  0  0  0  0  0  0  0  0  0  0
   -0.7285   -4.9399   30.5423 H   0  0  0  0  0  0  0  0  0  0  0  0
   -1.8265   -6.8563   31.2159 H   0  0  0  0  0  0  0  0  0  0  0  0
   -1.7418   -7.3231   29.5256 H   0  0  0  0  0  0  0  0  0  0  0  0
   -1.9909   -9.9666   30.5340 H   0  0  0  0  0  0  0  0  0  0  0  0
   -0.8334  -11.0446   30.4231 H   0  0  0  0  0  0  0  0  0  0  0  0
   -1.5169  -15.0873   27.9885 H   0  0  0  0  0  0  0  0  0  0  0  0
   -2.1353  -13.3906   25.5947 H   0  0  0  0  0  0  0  0  0  0  0  0
   -3.5678  -11.9000   27.0267 H   0  0  0  0  0  0  0  0  0  0  0  0
  1  2  1  0
  2  3  1  0
  2  4  1  0
  4  5  1  0
  4  6  1  0
  6  7  1  0
  7  8  2  0
  7  9  1  0
  9 10  1  0
 10 11  1  0
 11 12  1  0
 12 13  1  0
 13 14  1  0
 14 15  1  0
 15 16  1  0
 16 17  2  0
 16 18  1  0
 18 19  1  0
 19 20  2  0
 20 21  1  0
 21 22  2  0
 22 23  1  0
 15 11  1  0
 23 19  1  0
  1 24  1  0
  1 25  1  0
  1 26  1  0
  2 27  1  0
  3 28  1  0
  3 29  1  0
  3 30  1  0
  5 31  1  0
  5 32  1  0
  5 33  1  0
  6 34  1  0
  6 35  1  0
  9 36  1  0
 10 37  1  0
 10 38  1  0
 11 39  1  0
 12 40  1  0
 12 41  1  0
 13 42  1  0
 13 43  1  0
 14 44  1  0
 14 45  1  0
 18 46  1  0
 18 47  1  0
 21 48  1  0
 22 49  1  0
 23 50  1  0
M  END
>  <Energy>  (996) 
348.36434256150551

>  <compound_id>  (996) 
18083

>  <target_id>  (996) 
1

>  <reference_id>  (996) 
53

>  <inspiration_ids>  (996) 
[53, 116]

>  <energy_score>  (996) 
227.5379761502213

>  <distance_score>  (996) 
5.058458254060805

>  <path>  (996) 
/opt/xchem-fragalysis-2/maxwin/BulkDock/SCRATCH/511021/C18083-P53/C18083-P53.minimised.mol

>  <scratch_subdir>  (996) 
/opt/xchem-fragalysis-2/maxwin/BulkDock/SCRATCH/511021/C18083-P53

>  <fragmenstein_runtime>  (996) 
20.773447513580322

>  <fragmenstein_outcome>  (996) 
too moved

>  <fragmenstein_mode>  (996) 
expansion

>  <fragmenstein_error>  (996) 


$$$$
C18083-P116
     RDKit          3D

 50 51  0  0  0  0  0  0  0  0999 V2000
    1.2528    4.7630   28.2451 C   0  0  0  0  0  0  0  0  0  0  0  0
   -0.0190    3.9120   28.1084 C   0  0  0  0  0  0  0  0  0  0  0  0
   -1.1388    4.8432   27.6175 C   0  0  0  0  0  0  0  0  0  0  0  0
    0.1437    2.7628   27.1856 N   0  0  0  0  0  0  0  0  0  0  0  0
   -1.0865    1.9721   27.0790 C   0  0  0  0  0  0  0  0  0  0  0  0
    1.3380    1.9317   27.4391 C   0  0  0  0  0  0  0  0  0  0  0  0
    1.2042    0.9374   28.6193 C   0  0  0  0  0  0  0  0  0  0  0  0
    1.3023    1.3351   29.7457 O   0  0  0  0  0  0  0  0  0  0  0  0
    1.0077   -0.3990   28.1051 N   0  0  0  0  0  0  0  0  0  0  0  0
    0.7736   -1.6565   28.7892 C   0  0  0  0  0  0  0  0  0  0  0  0
   -0.7070   -2.1564   28.6540 C   0  0  0  0  0  0  0  0  0  0  0  0
   -1.5256   -1.0195   29.2957 C   0  0  0  0  0  0  0  0  0  0  0  0
   -2.0114   -1.7628   30.4577 C   0  0  0  0  0  0  0  0  0  0  0  0
   -2.2056   -3.0419   29.6850 C   0  0  0  0  0  0  0  0  0  0  0  0
   -0.9652   -3.6568   29.2726 N   0  0  0  0  0  0  0  0  0  0  0  0
   -1.2521   -5.0868   28.5058 C   0  0  0  0  0  0  0  0  0  0  0  0
   -1.4253   -5.3234   27.3100 O   0  0  0  0  0  0  0  0  0  0  0  0
   -1.4784   -6.7074   29.5377 C   0  0  0  0  0  0  0  0  0  0  0  0
   -0.7508   -7.9920   29.9663 C   0  0  0  0  0  0  0  0  0  0  0  0
   -0.8517   -8.4012   31.2314 N   0  0  0  0  0  0  0  0  0  0  0  0
   -0.6075   -9.7498   31.2675 C   0  0  0  0  0  0  0  0  0  0  0  0
   -0.4450  -10.2335   30.0007 C   0  0  0  0  0  0  0  0  0  0  0  0
   -0.5029   -9.1203   29.2041 N   0  0  0  0  0  0  0  0  0  0  0  0
    1.0481    5.6852   28.8012 H   0  0  0  0  0  0  0  0  0  0  0  0
    1.6515    5.0480   27.2651 H   0  0  0  0  0  0  0  0  0  0  0  0
    2.0350    4.2395   28.8033 H   0  0  0  0  0  0  0  0  0  0  0  0
   -0.2847    3.5495   29.1091 H   0  0  0  0  0  0  0  0  0  0  0  0
   -0.9896    5.1326   26.5711 H   0  0  0  0  0  0  0  0  0  0  0  0
   -1.1783    5.7629   28.2115 H   0  0  0  0  0  0  0  0  0  0  0  0
   -2.1194    4.3668   27.7099 H   0  0  0  0  0  0  0  0  0  0  0  0
   -0.9196    1.0522   26.5109 H   0  0  0  0  0  0  0  0  0  0  0  0
   -1.8588    2.5178   26.5276 H   0  0  0  0  0  0  0  0  0  0  0  0
   -1.4880    1.6986   28.0596 H   0  0  0  0  0  0  0  0  0  0  0  0
    1.5713    1.3937   26.5192 H   0  0  0  0  0  0  0  0  0  0  0  0
    2.2441    2.5232   27.6022 H   0  0  0  0  0  0  0  0  0  0  0  0
    1.0545   -0.3745   27.0920 H   0  0  0  0  0  0  0  0  0  0  0  0
    1.5223   -2.3080   28.3571 H   0  0  0  0  0  0  0  0  0  0  0  0
    1.0300   -1.5279   29.8472 H   0  0  0  0  0  0  0  0  0  0  0  0
   -0.9518   -2.2331   27.5908 H   0  0  0  0  0  0  0  0  0  0  0  0
   -2.3227   -0.7007   28.6159 H   0  0  0  0  0  0  0  0  0  0  0  0
   -0.9934   -0.1224   29.6115 H   0  0  0  0  0  0  0  0  0  0  0  0
   -1.2501   -1.8678   31.2402 H   0  0  0  0  0  0  0  0  0  0  0  0
   -2.9125   -1.3468   30.9090 H   0  0  0  0  0  0  0  0  0  0  0  0
   -2.5633   -3.6786   30.4888 H   0  0  0  0  0  0  0  0  0  0  0  0
   -2.9174   -2.9686   28.8886 H   0  0  0  0  0  0  0  0  0  0  0  0
   -1.7729   -6.4350   30.5734 H   0  0  0  0  0  0  0  0  0  0  0  0
   -2.2995   -7.1638   28.9732 H   0  0  0  0  0  0  0  0  0  0  0  0
   -0.5772  -10.2958   32.1989 H   0  0  0  0  0  0  0  0  0  0  0  0
   -0.2541  -11.2213   29.6083 H   0  0  0  0  0  0  0  0  0  0  0  0
   -0.4725   -9.1671   28.2024 H   0  0  0  0  0  0  0  0  0  0  0  0
  1  2  1  0
  2  3  1  0
  2  4  1  0
  4  5  1  0
  4  6  1  0
  6  7  1  0
  7  8  2  0
  7  9  1  0
  9 10  1  0
 10 11  1  0
 11 12  1  0
 12 13  1  0
 13 14  1  0
 14 15  1  0
 15 16  1  0
 16 17  2  0
 16 18  1  0
 18 19  1  0
 19 20  2  0
 20 21  1  0
 21 22  2  0
 22 23  1  0
 15 11  1  0
 23 19  1  0
  1 24  1  0
  1 25  1  0
  1 26  1  0
  2 27  1  0
  3 28  1  0
  3 29  1  0
  3 30  1  0
  5 31  1  0
  5 32  1  0
  5 33  1  0
  6 34  1  0
  6 35  1  0
  9 36  1  0
 10 37  1  0
 10 38  1  0
 11 39  1  0
 12 40  1  0
 12 41  1  0
 13 42  1  0
 13 43  1  0
 14 44  1  0
 14 45  1  0
 18 46  1  0
 18 47  1  0
 21 48  1  0
 22 49  1  0
 23 50  1  0
M  END
>  <Energy>  (997) 
247.26331835474551

>  <compound_id>  (997) 
18083

>  <target_id>  (997) 
1

>  <reference_id>  (997) 
116

>  <inspiration_ids>  (997) 
[53, 116]

>  <energy_score>  (997) 
126.43695194345275

>  <distance_score>  (997) 
3.5106419532556794

>  <path>  (997) 
/opt/xchem-fragalysis-2/maxwin/BulkDock/SCRATCH/511021/C18083-P116/C18083-P116.minimised.mol

>  <scratch_subdir>  (997) 
/opt/xchem-fragalysis-2/maxwin/BulkDock/SCRATCH/511021/C18083-P116

>  <fragmenstein_runtime>  (997) 
19.29720687866211

>  <fragmenstein_outcome>  (997) 
too moved

>  <fragmenstein_mode>  (997) 
expansion

>  <fragmenstein_error>  (997) 


$$$$
C18085-P53
     RDKit          3D

 47 48  0  0  0  0  0  0  0  0999 V2000
    1.4860   -1.3547   29.9875 C   0  0  0  0  0  0  0  0  0  0  0  0
    0.3995   -2.2722   29.4801 N   0  0  0  0  0  0  0  0  0  0  0  0
    0.3909   -1.2783   28.3452 C   0  0  0  0  0  0  0  0  0  0  0  0
   -0.3792    0.0651   28.4604 C   0  0  0  0  0  0  0  0  0  0  0  0
    0.3541    1.1124   27.7787 N   0  0  0  0  0  0  0  0  0  0  0  0
    1.5730    1.7895   28.1269 C   0  0  0  0  0  0  0  0  0  0  0  0
    2.2544    1.7169   29.1102 O   0  0  0  0  0  0  0  0  0  0  0  0
    2.0518    2.6746   26.9491 C   0  0  0  0  0  0  0  0  0  0  0  0
    1.5370    4.0482   26.9107 N   0  0  0  0  0  0  0  0  0  0  0  0
    0.1109    4.1948   26.6310 C   0  0  0  0  0  0  0  0  0  0  0  0
   -0.5797    4.4029   27.9662 C   0  0  0  0  0  0  0  0  0  0  0  0
    0.5261    4.7360   28.9564 C   0  0  0  0  0  0  0  0  0  0  0  0
    1.7951    4.8207   28.1275 C   0  0  0  0  0  0  0  0  0  0  0  0
   -0.5559   -2.5184   30.5092 C   0  0  0  0  0  0  0  0  0  0  0  0
   -1.5714   -1.9367   30.7901 O   0  0  0  0  0  0  0  0  0  0  0  0
   -0.1705   -3.7847   31.2681 C   0  0  0  0  0  0  0  0  0  0  0  0
    0.1925   -4.9295   30.3221 C   0  0  0  0  0  0  0  0  0  0  0  0
   -0.0273   -6.2658   30.9482 C   0  0  0  0  0  0  0  0  0  0  0  0
    0.2824   -6.6016   32.1793 N   0  0  0  0  0  0  0  0  0  0  0  0
   -0.1439   -7.8870   32.3327 C   0  0  0  0  0  0  0  0  0  0  0  0
   -0.6361   -8.3802   31.1518 C   0  0  0  0  0  0  0  0  0  0  0  0
   -0.6211   -7.3191   30.2973 N   0  0  0  0  0  0  0  0  0  0  0  0
    1.1335   -0.3992   30.3927 H   0  0  0  0  0  0  0  0  0  0  0  0
    1.8737   -1.8577   30.8868 H   0  0  0  0  0  0  0  0  0  0  0  0
    2.3859   -1.2825   29.3588 H   0  0  0  0  0  0  0  0  0  0  0  0
    1.3278   -1.2301   27.7632 H   0  0  0  0  0  0  0  0  0  0  0  0
   -0.2422   -1.8365   27.6383 H   0  0  0  0  0  0  0  0  0  0  0  0
   -1.3620   -0.0099   27.9826 H   0  0  0  0  0  0  0  0  0  0  0  0
   -0.5329    0.3866   29.4936 H   0  0  0  0  0  0  0  0  0  0  0  0
    0.0997    1.3581   26.8296 H   0  0  0  0  0  0  0  0  0  0  0  0
    3.1481    2.7093   27.0018 H   0  0  0  0  0  0  0  0  0  0  0  0
    1.8398    2.1755   25.9984 H   0  0  0  0  0  0  0  0  0  0  0  0
   -0.0240    5.0948   26.0178 H   0  0  0  0  0  0  0  0  0  0  0  0
   -0.3193    3.3698   26.0541 H   0  0  0  0  0  0  0  0  0  0  0  0
   -1.3087    5.2170   27.9012 H   0  0  0  0  0  0  0  0  0  0  0  0
   -1.1150    3.5017   28.2835 H   0  0  0  0  0  0  0  0  0  0  0  0
    0.6006    3.9466   29.7123 H   0  0  0  0  0  0  0  0  0  0  0  0
    0.3283    5.6761   29.4814 H   0  0  0  0  0  0  0  0  0  0  0  0
    2.6839    4.4989   28.6809 H   0  0  0  0  0  0  0  0  0  0  0  0
    1.9679    5.8653   27.8397 H   0  0  0  0  0  0  0  0  0  0  0  0
    0.6531   -3.5623   31.9554 H   0  0  0  0  0  0  0  0  0  0  0  0
   -1.0345   -4.0608   31.8861 H   0  0  0  0  0  0  0  0  0  0  0  0
   -0.3922   -4.8494   29.4021 H   0  0  0  0  0  0  0  0  0  0  0  0
    1.2473   -4.8506   30.0315 H   0  0  0  0  0  0  0  0  0  0  0  0
   -0.0474   -8.3857   33.2855 H   0  0  0  0  0  0  0  0  0  0  0  0
   -0.9978   -9.3601   30.8830 H   0  0  0  0  0  0  0  0  0  0  0  0
   -0.9975   -7.2868   29.3588 H   0  0  0  0  0  0  0  0  0  0  0  0
  1  2  1  0
  2  3  1  0
  3  4  1  0
  4  5  1  0
  5  6  1  0
  6  7  2  0
  6  8  1  0
  8  9  1  0
  9 10  1  0
 10 11  1  0
 11 12  1  0
 12 13  1  0
  2 14  1  0
 14 15  2  0
 14 16  1  0
 16 17  1  0
 17 18  1  0
 18 19  2  0
 19 20  1  0
 20 21  2  0
 21 22  1  0
 13  9  1  0
 22 18  1  0
  1 23  1  0
  1 24  1  0
  1 25  1  0
  3 26  1  0
  3 27  1  0
  4 28  1  0
  4 29  1  0
  5 30  1  0
  8 31  1  0
  8 32  1  0
 10 33  1  0
 10 34  1  0
 11 35  1  0
 11 36  1  0
 12 37  1  0
 12 38  1  0
 13 39  1  0
 13 40  1  0
 16 41  1  0
 16 42  1  0
 17 43  1  0
 17 44  1  0
 20 45  1  0
 21 46  1  0
 22 47  1  0
M  END
>  <Energy>  (998) 
107.07376108733818

>  <compound_id>  (998) 
18085

>  <target_id>  (998) 
1

>  <reference_id>  (998) 
53

>  <inspiration_ids>  (998) 
[53, 116]

>  <energy_score>  (998) 
58.496352177368124

>  <distance_score>  (998) 
6.397355099013871

>  <path>  (998) 
/opt/xchem-fragalysis-2/maxwin/BulkDock/SCRATCH/511021/C18085-P53/C18085-P53.minimised.mol

>  <scratch_subdir>  (998) 
/opt/xchem-fragalysis-2/maxwin/BulkDock/SCRATCH/511021/C18085-P53

>  <fragmenstein_runtime>  (998) 
24.293943405151367

>  <fragmenstein_outcome>  (998) 
too moved

>  <fragmenstein_mode>  (998) 
expansion

>  <fragmenstein_error>  (998) 


$$$$
C18085-P116
     RDKit          3D

 47 48  0  0  0  0  0  0  0  0999 V2000
   -2.9158  -10.9627   18.4979 C   0  0  0  0  0  0  0  0  0  0  0  0
   -1.7196  -11.6931   17.9474 N   0  0  0  0  0  0  0  0  0  0  0  0
   -2.4608  -11.3994   16.6524 C   0  0  0  0  0  0  0  0  0  0  0  0
   -1.9003  -10.1730   15.8976 C   0  0  0  0  0  0  0  0  0  0  0  0
   -0.4583  -10.1677   15.8793 N   0  0  0  0  0  0  0  0  0  0  0  0
    0.5320   -9.3348   15.0334 C   0  0  0  0  0  0  0  0  0  0  0  0
    0.3370   -8.4692   14.2753 O   0  0  0  0  0  0  0  0  0  0  0  0
    1.9417   -9.9278   15.2735 C   0  0  0  0  0  0  0  0  0  0  0  0
    2.0680  -10.6155   16.5801 N   0  0  0  0  0  0  0  0  0  0  0  0
    3.2969  -11.4113   16.6400 C   0  0  0  0  0  0  0  0  0  0  0  0
    3.4032  -11.7176   18.1217 C   0  0  0  0  0  0  0  0  0  0  0  0
    2.8806  -10.4592   18.8002 C   0  0  0  0  0  0  0  0  0  0  0  0
    2.1766   -9.6679   17.7007 C   0  0  0  0  0  0  0  0  0  0  0  0
   -1.4908  -13.0048   18.6807 C   0  0  0  0  0  0  0  0  0  0  0  0
   -1.9024  -14.0830   18.4568 O   0  0  0  0  0  0  0  0  0  0  0  0
   -0.4847  -12.6799   19.7744 C   0  0  0  0  0  0  0  0  0  0  0  0
   -0.2251  -13.8706   20.6868 C   0  0  0  0  0  0  0  0  0  0  0  0
    0.5648  -13.4558   21.8846 C   0  0  0  0  0  0  0  0  0  0  0  0
    0.1391  -13.2003   23.0956 N   0  0  0  0  0  0  0  0  0  0  0  0
    1.2063  -12.7383   23.7979 C   0  0  0  0  0  0  0  0  0  0  0  0
    2.3491  -12.8936   23.0457 C   0  0  0  0  0  0  0  0  0  0  0  0
    1.9138  -13.2897   21.8252 N   0  0  0  0  0  0  0  0  0  0  0  0
   -3.0759   -9.9304   18.1568 H   0  0  0  0  0  0  0  0  0  0  0  0
   -2.6859  -10.8256   19.5635 H   0  0  0  0  0  0  0  0  0  0  0  0
   -3.8258  -11.5835   18.5281 H   0  0  0  0  0  0  0  0  0  0  0  0
   -3.5584  -11.5123   16.5806 H   0  0  0  0  0  0  0  0  0  0  0  0
   -2.1435  -12.2626   16.0429 H   0  0  0  0  0  0  0  0  0  0  0  0
   -2.2150   -9.2261   16.3453 H   0  0  0  0  0  0  0  0  0  0  0  0
   -2.2486  -10.1712   14.8596 H   0  0  0  0  0  0  0  0  0  0  0  0
    0.0509  -10.9028   16.3757 H   0  0  0  0  0  0  0  0  0  0  0  0
    2.0966  -10.6516   14.4634 H   0  0  0  0  0  0  0  0  0  0  0  0
    2.6841   -9.1282   15.1654 H   0  0  0  0  0  0  0  0  0  0  0  0
    3.2245  -12.3266   16.0444 H   0  0  0  0  0  0  0  0  0  0  0  0
    4.1720  -10.8383   16.3071 H   0  0  0  0  0  0  0  0  0  0  0  0
    4.4275  -11.9547   18.4250 H   0  0  0  0  0  0  0  0  0  0  0  0
    2.7684  -12.5730   18.3824 H   0  0  0  0  0  0  0  0  0  0  0  0
    2.2010  -10.7127   19.6203 H   0  0  0  0  0  0  0  0  0  0  0  0
    3.7099   -9.8792   19.2179 H   0  0  0  0  0  0  0  0  0  0  0  0
    2.7874   -8.7936   17.4417 H   0  0  0  0  0  0  0  0  0  0  0  0
    1.1962   -9.3133   18.0338 H   0  0  0  0  0  0  0  0  0  0  0  0
   -0.8459  -11.8272   20.3554 H   0  0  0  0  0  0  0  0  0  0  0  0
    0.4488  -12.3735   19.2898 H   0  0  0  0  0  0  0  0  0  0  0  0
    0.3152  -14.6518   20.1373 H   0  0  0  0  0  0  0  0  0  0  0  0
   -1.1687  -14.3249   21.0028 H   0  0  0  0  0  0  0  0  0  0  0  0
    1.1166  -12.4130   24.8238 H   0  0  0  0  0  0  0  0  0  0  0  0
    3.3962  -12.7614   23.2561 H   0  0  0  0  0  0  0  0  0  0  0  0
    2.4895  -13.4390   21.0102 H   0  0  0  0  0  0  0  0  0  0  0  0
  1  2  1  0
  2  3  1  0
  3  4  1  0
  4  5  1  0
  5  6  1  0
  6  7  2  0
  6  8  1  0
  8  9  1  0
  9 10  1  0
 10 11  1  0
 11 12  1  0
 12 13  1  0
  2 14  1  0
 14 15  2  0
 14 16  1  0
 16 17  1  0
 17 18  1  0
 18 19  2  0
 19 20  1  0
 20 21  2  0
 21 22  1  0
 13  9  1  0
 22 18  1  0
  1 23  1  0
  1 24  1  0
  1 25  1  0
  3 26  1  0
  3 27  1  0
  4 28  1  0
  4 29  1  0
  5 30  1  0
  8 31  1  0
  8 32  1  0
 10 33  1  0
 10 34  1  0
 11 35  1  0
 11 36  1  0
 12 37  1  0
 12 38  1  0
 13 39  1  0
 13 40  1  0
 16 41  1  0
 16 42  1  0
 17 43  1  0
 17 44  1  0
 20 45  1  0
 21 46  1  0
 22 47  1  0
M  END
>  <Energy>  (999) 
111.75700634519819

>  <compound_id>  (999) 
18085

>  <target_id>  (999) 
1

>  <reference_id>  (999) 
116

>  <inspiration_ids>  (999) 
[53, 116]

>  <energy_score>  (999) 
48.04248198597355

>  <distance_score>  (999) 
13.969530396854635

>  <path>  (999) 
/opt/xchem-fragalysis-2/maxwin/BulkDock/SCRATCH/511021/C18085-P116/C18085-P116.minimised.mol

>  <scratch_subdir>  (999) 
/opt/xchem-fragalysis-2/maxwin/BulkDock/SCRATCH/511021/C18085-P116

>  <fragmenstein_runtime>  (999) 
22.104968786239624

>  <fragmenstein_outcome>  (999) 
too moved

>  <fragmenstein_mode>  (999) 
expansion

>  <fragmenstein_error>  (999) 


$$$$
C46376-P53
     RDKit          3D

 43 44  0  0  0  0  0  0  0  0999 V2000
    0.3053    2.7603   26.6542 C   0  0  0  0  0  0  0  0  0  0  0  0
    0.5850    2.4536   28.1180 C   0  0  0  0  0  0  0  0  0  0  0  0
    2.0281    2.0199   28.3361 C   0  0  0  0  0  0  0  0  0  0  0  0
   -0.5949    1.2667   28.7864 S   0  0  0  0  0  0  0  0  0  0  0  0
   -0.4864    1.3288   30.2348 O   0  0  0  0  0  0  0  0  0  0  0  0
   -1.8807    1.5087   28.1630 O   0  0  0  0  0  0  0  0  0  0  0  0
   -0.0626   -0.3724   28.2900 C   0  0  0  0  0  0  0  0  0  0  0  0
   -1.1599   -1.3581   28.2665 C   0  0  0  0  0  0  0  0  0  0  0  0
   -0.9154   -1.9402   29.6372 C   0  0  0  0  0  0  0  0  0  0  0  0
    0.4998   -2.3876   29.9688 N   0  0  0  0  0  0  0  0  0  0  0  0
    0.7865   -3.7863   29.4077 C   0  0  0  0  0  0  0  0  0  0  0  0
    1.2271   -4.1131   28.3647 O   0  0  0  0  0  0  0  0  0  0  0  0
    0.3754   -4.8391   30.5372 C   0  0  0  0  0  0  0  0  0  0  0  0
    0.4273   -4.2006   31.8880 N   0  0  0  0  0  0  0  0  0  0  0  0
    1.2267   -6.1318   30.5239 C   0  0  0  0  0  0  0  0  0  0  0  0
    0.4666   -7.4334   30.3817 C   0  0  0  0  0  0  0  0  0  0  0  0
   -0.3137   -8.1278   31.2824 C   0  0  0  0  0  0  0  0  0  0  0  0
   -0.6650   -9.2768   30.6419 N   0  0  0  0  0  0  0  0  0  0  0  0
   -0.2169   -9.1762   29.3732 C   0  0  0  0  0  0  0  0  0  0  0  0
    0.5976   -8.1722   29.2303 N   0  0  0  0  0  0  0  0  0  0  0  0
    0.7927   -1.0104   29.3912 C   0  0  0  0  0  0  0  0  0  0  0  0
    1.0479    3.4540   26.2470 H   0  0  0  0  0  0  0  0  0  0  0  0
    0.3169    1.8503   26.0540 H   0  0  0  0  0  0  0  0  0  0  0  0
   -0.6803    3.2216   26.5312 H   0  0  0  0  0  0  0  0  0  0  0  0
    0.4119    3.3708   28.6951 H   0  0  0  0  0  0  0  0  0  0  0  0
    2.7171    2.8209   28.0475 H   0  0  0  0  0  0  0  0  0  0  0  0
    2.2818    1.1375   27.7409 H   0  0  0  0  0  0  0  0  0  0  0  0
    2.2151    1.7832   29.3883 H   0  0  0  0  0  0  0  0  0  0  0  0
    0.4345   -0.2921   27.3214 H   0  0  0  0  0  0  0  0  0  0  0  0
   -2.1722   -0.9684   28.1454 H   0  0  0  0  0  0  0  0  0  0  0  0
   -0.9849   -2.1253   27.5120 H   0  0  0  0  0  0  0  0  0  0  0  0
   -1.5475   -2.8330   29.7316 H   0  0  0  0  0  0  0  0  0  0  0  0
   -1.2654   -1.2788   30.4482 H   0  0  0  0  0  0  0  0  0  0  0  0
   -0.6667   -5.0827   30.3445 H   0  0  0  0  0  0  0  0  0  0  0  0
    0.0868   -3.2410   31.7599 H   0  0  0  0  0  0  0  0  0  0  0  0
    1.4106   -4.0527   32.1256 H   0  0  0  0  0  0  0  0  0  0  0  0
    1.8136   -6.2097   31.4494 H   0  0  0  0  0  0  0  0  0  0  0  0
    1.9732   -6.0826   29.7217 H   0  0  0  0  0  0  0  0  0  0  0  0
   -0.5952   -7.9262   32.3077 H   0  0  0  0  0  0  0  0  0  0  0  0
   -1.1495  -10.0520   31.0511 H   0  0  0  0  0  0  0  0  0  0  0  0
   -0.4894   -9.8298   28.5786 H   0  0  0  0  0  0  0  0  0  0  0  0
    1.7909   -1.1462   28.9481 H   0  0  0  0  0  0  0  0  0  0  0  0
    0.9921   -0.3726   30.2603 H   0  0  0  0  0  0  0  0  0  0  0  0
  1  2  1  0
  2  3  1  0
  2  4  1  0
  4  5  2  0
  4  6  2  0
  4  7  1  0
  7  8  1  0
  8  9  1  0
  9 10  1  0
 10 11  1  0
 11 12  2  0
 11 13  1  0
 13 14  1  0
 13 15  1  0
 15 16  1  0
 16 17  2  0
 17 18  1  0
 18 19  1  0
 19 20  2  0
 10 21  1  0
 21  7  1  0
 20 16  1  0
  1 22  1  0
  1 23  1  0
  1 24  1  0
  2 25  1  0
  3 26  1  0
  3 27  1  0
  3 28  1  0
  7 29  1  0
  8 30  1  0
  8 31  1  0
  9 32  1  0
  9 33  1  0
 13 34  1  0
 14 35  1  0
 14 36  1  0
 15 37  1  0
 15 38  1  0
 17 39  1  0
 18 40  1  0
 19 41  1  0
 21 42  1  0
 21 43  1  0
M  END
>  <Energy>  (1000) 
118.37619596560904

>  <compound_id>  (1000) 
46376

>  <target_id>  (1000) 
1

>  <reference_id>  (1000) 
53

>  <inspiration_ids>  (1000) 
[53, 116]

>  <energy_score>  (1000) 
19.608460211146962

>  <distance_score>  (1000) 
6.086981878927946

>  <path>  (1000) 
/opt/xchem-fragalysis-2/maxwin/BulkDock/SCRATCH/511021/C46376-P53/C46376-P53.minimised.mol

>  <scratch_subdir>  (1000) 
/opt/xchem-fragalysis-2/maxwin/BulkDock/SCRATCH/511021/C46376-P53

>  <fragmenstein_runtime>  (1000) 
15.844604969024658

>  <fragmenstein_outcome>  (1000) 
too moved

>  <fragmenstein_mode>  (1000) 
expansion

>  <fragmenstein_error>  (1000) 


$$$$
C46376-P116
     RDKit          3D

 43 44  0  0  0  0  0  0  0  0999 V2000
   -1.4324    3.4009   27.1877 C   0  0  0  0  0  0  0  0  0  0  0  0
   -0.7118    2.0785   27.4546 C   0  0  0  0  0  0  0  0  0  0  0  0
   -1.7142    0.9930   27.8002 C   0  0  0  0  0  0  0  0  0  0  0  0
    0.5845    2.3439   28.6899 S   0  0  0  0  0  0  0  0  0  0  0  0
    1.6715    3.0224   28.0018 O   0  0  0  0  0  0  0  0  0  0  0  0
    0.0157    2.9424   29.8808 O   0  0  0  0  0  0  0  0  0  0  0  0
    1.2690    0.8199   29.2184 C   0  0  0  0  0  0  0  0  0  0  0  0
    1.5968   -0.1752   28.1851 C   0  0  0  0  0  0  0  0  0  0  0  0
    1.2689   -1.3924   29.0164 C   0  0  0  0  0  0  0  0  0  0  0  0
   -0.1052   -1.3082   29.6104 N   0  0  0  0  0  0  0  0  0  0  0  0
   -0.4539   -2.5703   30.2714 C   0  0  0  0  0  0  0  0  0  0  0  0
   -0.2917   -2.9250   31.4128 O   0  0  0  0  0  0  0  0  0  0  0  0
   -1.2834   -3.5015   29.1744 C   0  0  0  0  0  0  0  0  0  0  0  0
   -2.5507   -2.8860   29.4250 N   0  0  0  0  0  0  0  0  0  0  0  0
   -1.3432   -5.1486   28.6600 C   0  0  0  0  0  0  0  0  0  0  0  0
   -1.3480   -6.8176   29.5640 C   0  0  0  0  0  0  0  0  0  0  0  0
   -1.2675   -7.1805   30.9243 C   0  0  0  0  0  0  0  0  0  0  0  0
   -0.6988   -8.4293   30.9709 N   0  0  0  0  0  0  0  0  0  0  0  0
   -0.6342   -8.8744   29.6903 C   0  0  0  0  0  0  0  0  0  0  0  0
   -1.0953   -7.9747   28.8408 N   0  0  0  0  0  0  0  0  0  0  0  0
    0.4586   -0.0274   30.1737 C   0  0  0  0  0  0  0  0  0  0  0  0
   -2.1477    3.2965   26.3649 H   0  0  0  0  0  0  0  0  0  0  0  0
   -1.9819    3.7406   28.0712 H   0  0  0  0  0  0  0  0  0  0  0  0
   -0.7221    4.1884   26.9148 H   0  0  0  0  0  0  0  0  0  0  0  0
   -0.1868    1.7912   26.5367 H   0  0  0  0  0  0  0  0  0  0  0  0
   -2.1079    1.1001   28.8117 H   0  0  0  0  0  0  0  0  0  0  0  0
   -2.5576    1.0110   27.1013 H   0  0  0  0  0  0  0  0  0  0  0  0
   -1.2712    0.0003   27.7124 H   0  0  0  0  0  0  0  0  0  0  0  0
    2.1843    1.1210   29.7487 H   0  0  0  0  0  0  0  0  0  0  0  0
    2.6445   -0.1525   27.8718 H   0  0  0  0  0  0  0  0  0  0  0  0
    0.9691   -0.1201   27.2939 H   0  0  0  0  0  0  0  0  0  0  0  0
    2.0352   -1.6646   29.7621 H   0  0  0  0  0  0  0  0  0  0  0  0
    1.2574   -2.2101   28.3068 H   0  0  0  0  0  0  0  0  0  0  0  0
   -0.9616   -3.0397   28.2276 H   0  0  0  0  0  0  0  0  0  0  0  0
   -3.1548   -3.2038   28.6654 H   0  0  0  0  0  0  0  0  0  0  0  0
   -2.8894   -3.1652   30.3413 H   0  0  0  0  0  0  0  0  0  0  0  0
   -0.7718   -4.9875   27.7423 H   0  0  0  0  0  0  0  0  0  0  0  0
   -2.0278   -5.5833   27.9674 H   0  0  0  0  0  0  0  0  0  0  0  0
   -1.2785   -6.5833   31.8230 H   0  0  0  0  0  0  0  0  0  0  0  0
   -0.2387   -8.8683   31.7635 H   0  0  0  0  0  0  0  0  0  0  0  0
   -0.2351   -9.8495   29.4366 H   0  0  0  0  0  0  0  0  0  0  0  0
    1.0252   -0.2689   31.0897 H   0  0  0  0  0  0  0  0  0  0  0  0
   -0.4179    0.5120   30.5520 H   0  0  0  0  0  0  0  0  0  0  0  0
  1  2  1  0
  2  3  1  0
  2  4  1  0
  4  5  2  0
  4  6  2  0
  4  7  1  0
  7  8  1  0
  8  9  1  0
  9 10  1  0
 10 11  1  0
 11 12  2  0
 11 13  1  0
 13 14  1  0
 13 15  1  0
 15 16  1  0
 16 17  2  0
 17 18  1  0
 18 19  1  0
 19 20  2  0
 10 21  1  0
 21  7  1  0
 20 16  1  0
  1 22  1  0
  1 23  1  0
  1 24  1  0
  2 25  1  0
  3 26  1  0
  3 27  1  0
  3 28  1  0
  7 29  1  0
  8 30  1  0
  8 31  1  0
  9 32  1  0
  9 33  1  0
 13 34  1  0
 14 35  1  0
 14 36  1  0
 15 37  1  0
 15 38  1  0
 17 39  1  0
 18 40  1  0
 19 41  1  0
 21 42  1  0
 21 43  1  0
M  END
>  <Energy>  (1001) 
227.12996307954424

>  <compound_id>  (1001) 
46376

>  <target_id>  (1001) 
1

>  <reference_id>  (1001) 
116

>  <inspiration_ids>  (1001) 
[53, 116]

>  <energy_score>  (1001) 
127.65920242856322

>  <distance_score>  (1001) 
6.08701857890435

>  <path>  (1001) 
/opt/xchem-fragalysis-2/maxwin/BulkDock/SCRATCH/511021/C46376-P116/C46376-P116.minimised.mol

>  <scratch_subdir>  (1001) 
/opt/xchem-fragalysis-2/maxwin/BulkDock/SCRATCH/511021/C46376-P116

>  <fragmenstein_runtime>  (1001) 
12.254916667938232

>  <fragmenstein_outcome>  (1001) 
too moved

>  <fragmenstein_mode>  (1001) 
expansion

>  <fragmenstein_error>  (1001) 


$$$$
C46377-P53
     RDKit          3D

 41 42  0  0  0  0  0  0  0  0999 V2000
   -2.8728    2.5319   26.2288 C   0  0  0  0  0  0  0  0  0  0  0  0
   -2.0382    2.3413   27.4918 C   0  0  0  0  0  0  0  0  0  0  0  0
   -1.1877    3.5768   27.7593 C   0  0  0  0  0  0  0  0  0  0  0  0
   -1.0297    0.8635   27.3270 S   0  0  0  0  0  0  0  0  0  0  0  0
   -1.8929   -0.1774   26.8165 O   0  0  0  0  0  0  0  0  0  0  0  0
    0.1856    1.2589   26.6413 O   0  0  0  0  0  0  0  0  0  0  0  0
   -0.5742    0.4250   28.9753 C   0  0  0  0  0  0  0  0  0  0  0  0
   -1.5941   -0.3091   29.7592 C   0  0  0  0  0  0  0  0  0  0  0  0
   -0.6481   -1.2498   30.4614 C   0  0  0  0  0  0  0  0  0  0  0  0
    0.2031   -1.9979   29.4831 N   0  0  0  0  0  0  0  0  0  0  0  0
    0.9783   -2.9916   30.1599 C   0  0  0  0  0  0  0  0  0  0  0  0
    2.0797   -2.9307   30.6391 O   0  0  0  0  0  0  0  0  0  0  0  0
    0.1719   -4.2875   30.2250 C   0  0  0  0  0  0  0  0  0  0  0  0
    1.0532   -5.4771   30.6019 C   0  0  0  0  0  0  0  0  0  0  0  0
    0.2831   -6.7371   30.8203 C   0  0  0  0  0  0  0  0  0  0  0  0
   -0.4829   -7.0964   31.9085 C   0  0  0  0  0  0  0  0  0  0  0  0
   -0.9194   -8.3627   31.6487 N   0  0  0  0  0  0  0  0  0  0  0  0
   -0.4142   -8.7182   30.4330 C   0  0  0  0  0  0  0  0  0  0  0  0
    0.3114   -7.7624   29.9034 N   0  0  0  0  0  0  0  0  0  0  0  0
    0.5597   -0.5867   29.0527 C   0  0  0  0  0  0  0  0  0  0  0  0
   -3.5751    1.7024   26.0997 H   0  0  0  0  0  0  0  0  0  0  0  0
   -2.2406    2.5791   25.3355 H   0  0  0  0  0  0  0  0  0  0  0  0
   -3.4605    3.4490   26.2765 H   0  0  0  0  0  0  0  0  0  0  0  0
   -2.7090    2.1568   28.3329 H   0  0  0  0  0  0  0  0  0  0  0  0
   -0.5058    3.7848   26.9277 H   0  0  0  0  0  0  0  0  0  0  0  0
   -1.8195    4.4588   27.8933 H   0  0  0  0  0  0  0  0  0  0  0  0
   -0.5815    3.4582   28.6619 H   0  0  0  0  0  0  0  0  0  0  0  0
   -0.2531    1.3470   29.4708 H   0  0  0  0  0  0  0  0  0  0  0  0
   -2.3054   -0.8689   29.1465 H   0  0  0  0  0  0  0  0  0  0  0  0
   -2.1524    0.3099   30.4604 H   0  0  0  0  0  0  0  0  0  0  0  0
   -1.2559   -1.9950   30.9921 H   0  0  0  0  0  0  0  0  0  0  0  0
   -0.0465   -0.7808   31.2611 H   0  0  0  0  0  0  0  0  0  0  0  0
   -0.6181   -4.1609   30.9739 H   0  0  0  0  0  0  0  0  0  0  0  0
   -0.3062   -4.4589   29.2559 H   0  0  0  0  0  0  0  0  0  0  0  0
    1.6123   -5.2583   31.5209 H   0  0  0  0  0  0  0  0  0  0  0  0
    1.8057   -5.6397   29.8201 H   0  0  0  0  0  0  0  0  0  0  0  0
   -0.7333   -6.5840   32.8272 H   0  0  0  0  0  0  0  0  0  0  0  0
   -1.4905   -8.9314   32.2620 H   0  0  0  0  0  0  0  0  0  0  0  0
   -0.5970   -9.6868   29.9963 H   0  0  0  0  0  0  0  0  0  0  0  0
    1.3736   -0.2254   29.7047 H   0  0  0  0  0  0  0  0  0  0  0  0
    1.0503   -0.7214   28.0802 H   0  0  0  0  0  0  0  0  0  0  0  0
  1  2  1  0
  2  3  1  0
  2  4  1  0
  4  5  2  0
  4  6  2  0
  4  7  1  0
  7  8  1  0
  8  9  1  0
  9 10  1  0
 10 11  1  0
 11 12  2  0
 11 13  1  0
 13 14  1  0
 14 15  1  0
 15 16  2  0
 16 17  1  0
 17 18  1  0
 18 19  2  0
 10 20  1  0
 20  7  1  0
 19 15  1  0
  1 21  1  0
  1 22  1  0
  1 23  1  0
  2 24  1  0
  3 25  1  0
  3 26  1  0
  3 27  1  0
  7 28  1  0
  8 29  1  0
  8 30  1  0
  9 31  1  0
  9 32  1  0
 13 33  1  0
 13 34  1  0
 14 35  1  0
 14 36  1  0
 16 37  1  0
 17 38  1  0
 18 39  1  0
 20 40  1  0
 20 41  1  0
M  END
>  <Energy>  (1002) 
36.800883082932501

>  <compound_id>  (1002) 
46377

>  <target_id>  (1002) 
1

>  <reference_id>  (1002) 
53

>  <inspiration_ids>  (1002) 
[53, 116]

>  <energy_score>  (1002) 
25.055413391170475

>  <distance_score>  (1002) 
6.241373220878922

>  <path>  (1002) 
/opt/xchem-fragalysis-2/maxwin/BulkDock/SCRATCH/511021/C46377-P53/C46377-P53.minimised.mol

>  <scratch_subdir>  (1002) 
/opt/xchem-fragalysis-2/maxwin/BulkDock/SCRATCH/511021/C46377-P53

>  <fragmenstein_runtime>  (1002) 
11.996114492416382

>  <fragmenstein_outcome>  (1002) 
too moved

>  <fragmenstein_mode>  (1002) 
expansion

>  <fragmenstein_error>  (1002) 


$$$$
C46377-P116
     RDKit          3D

 41 42  0  0  0  0  0  0  0  0999 V2000
    1.5110    2.2262   26.8704 C   0  0  0  0  0  0  0  0  0  0  0  0
    0.8909    1.1430   27.7452 C   0  0  0  0  0  0  0  0  0  0  0  0
   -0.2713    1.7278   28.5434 C   0  0  0  0  0  0  0  0  0  0  0  0
    2.1047    0.3965   28.8582 S   0  0  0  0  0  0  0  0  0  0  0  0
    1.3859   -0.2778   29.9262 O   0  0  0  0  0  0  0  0  0  0  0  0
    3.1189    1.3781   29.1943 O   0  0  0  0  0  0  0  0  0  0  0  0
    2.8858   -0.8880   27.9134 C   0  0  0  0  0  0  0  0  0  0  0  0
    3.9256   -0.4663   26.9387 C   0  0  0  0  0  0  0  0  0  0  0  0
    5.1398   -1.1728   27.5349 C   0  0  0  0  0  0  0  0  0  0  0  0
    4.8140   -2.5269   28.1416 N   0  0  0  0  0  0  0  0  0  0  0  0
    4.7016   -3.5235   27.1112 C   0  0  0  0  0  0  0  0  0  0  0  0
    3.7459   -3.8911   26.4846 O   0  0  0  0  0  0  0  0  0  0  0  0
    6.0851   -4.1907   26.9612 C   0  0  0  0  0  0  0  0  0  0  0  0
    6.1205   -5.5055   26.1696 C   0  0  0  0  0  0  0  0  0  0  0  0
    6.0913   -6.7961   26.9500 C   0  0  0  0  0  0  0  0  0  0  0  0
    6.1398   -7.0519   28.3052 C   0  0  0  0  0  0  0  0  0  0  0  0
    6.1554   -8.4167   28.4259 N   0  0  0  0  0  0  0  0  0  0  0  0
    6.1329   -8.9432   27.1735 C   0  0  0  0  0  0  0  0  0  0  0  0
    6.0862   -7.9999   26.2637 N   0  0  0  0  0  0  0  0  0  0  0  0
    3.7631   -1.7128   28.8355 C   0  0  0  0  0  0  0  0  0  0  0  0
    1.8972    3.0558   27.4722 H   0  0  0  0  0  0  0  0  0  0  0  0
    0.7681    2.6346   26.1768 H   0  0  0  0  0  0  0  0  0  0  0  0
    2.3392    1.8382   26.2737 H   0  0  0  0  0  0  0  0  0  0  0  0
    0.5045    0.3286   27.1246 H   0  0  0  0  0  0  0  0  0  0  0  0
   -0.7882    0.9478   29.1120 H   0  0  0  0  0  0  0  0  0  0  0  0
    0.0765    2.4848   29.2547 H   0  0  0  0  0  0  0  0  0  0  0  0
   -1.0080    2.1931   27.8800 H   0  0  0  0  0  0  0  0  0  0  0  0
    2.1046   -1.5004   27.4551 H   0  0  0  0  0  0  0  0  0  0  0  0
    4.1024    0.6079   26.8559 H   0  0  0  0  0  0  0  0  0  0  0  0
    3.7097   -0.8542   25.9393 H   0  0  0  0  0  0  0  0  0  0  0  0
    5.8726   -1.3297   26.7323 H   0  0  0  0  0  0  0  0  0  0  0  0
    5.6708   -0.5509   28.2754 H   0  0  0  0  0  0  0  0  0  0  0  0
    6.6985   -3.4655   26.4105 H   0  0  0  0  0  0  0  0  0  0  0  0
    6.5426   -4.3098   27.9496 H   0  0  0  0  0  0  0  0  0  0  0  0
    5.3384   -5.5224   25.4036 H   0  0  0  0  0  0  0  0  0  0  0  0
    7.0714   -5.5228   25.6183 H   0  0  0  0  0  0  0  0  0  0  0  0
    6.2048   -6.4021   29.1646 H   0  0  0  0  0  0  0  0  0  0  0  0
    6.2528   -8.9491   29.2779 H   0  0  0  0  0  0  0  0  0  0  0  0
    6.1806  -10.0074   26.9882 H   0  0  0  0  0  0  0  0  0  0  0  0
    4.2169   -1.1579   29.6739 H   0  0  0  0  0  0  0  0  0  0  0  0
    3.1156   -2.4489   29.3183 H   0  0  0  0  0  0  0  0  0  0  0  0
  1  2  1  0
  2  3  1  0
  2  4  1  0
  4  5  2  0
  4  6  2  0
  4  7  1  0
  7  8  1  0
  8  9  1  0
  9 10  1  0
 10 11  1  0
 11 12  2  0
 11 13  1  0
 13 14  1  0
 14 15  1  0
 15 16  2  0
 16 17  1  0
 17 18  1  0
 18 19  2  0
 10 20  1  0
 20  7  1  0
 19 15  1  0
  1 21  1  0
  1 22  1  0
  1 23  1  0
  2 24  1  0
  3 25  1  0
  3 26  1  0
  3 27  1  0
  7 28  1  0
  8 29  1  0
  8 30  1  0
  9 31  1  0
  9 32  1  0
 13 33  1  0
 13 34  1  0
 14 35  1  0
 14 36  1  0
 16 37  1  0
 17 38  1  0
 18 39  1  0
 20 40  1  0
 20 41  1  0
M  END
>  <Energy>  (1003) 
35.947372540813355

>  <compound_id>  (1003) 
46377

>  <target_id>  (1003) 
1

>  <reference_id>  (1003) 
116

>  <inspiration_ids>  (1003) 
[53, 116]

>  <energy_score>  (1003) 
24.20190284904629

>  <distance_score>  (1003) 
8.688722731354051

>  <path>  (1003) 
/opt/xchem-fragalysis-2/maxwin/BulkDock/SCRATCH/511021/C46377-P116/C46377-P116.minimised.mol

>  <scratch_subdir>  (1003) 
/opt/xchem-fragalysis-2/maxwin/BulkDock/SCRATCH/511021/C46377-P116

>  <fragmenstein_runtime>  (1003) 
16.2443106174469

>  <fragmenstein_outcome>  (1003) 
too moved

>  <fragmenstein_mode>  (1003) 
expansion

>  <fragmenstein_error>  (1003) 


$$$$
C18086-P53
     RDKit          3D

 43 44  0  0  0  0  0  0  0  0999 V2000
   -1.6383   -1.1747   27.8778 C   0  0  0  0  0  0  0  0  0  0  0  0
   -0.8211   -0.0764   28.5308 C   0  0  0  0  0  0  0  0  0  0  0  0
   -1.3280    1.2965   28.0962 C   0  0  0  0  0  0  0  0  0  0  0  0
   -0.8408   -0.2039   30.3289 S   0  0  0  0  0  0  0  0  0  0  0  0
   -2.2156   -0.2292   30.8010 O   0  0  0  0  0  0  0  0  0  0  0  0
    0.0635    0.8095   30.8431 O   0  0  0  0  0  0  0  0  0  0  0  0
   -0.1114   -1.7857   30.7196 C   0  0  0  0  0  0  0  0  0  0  0  0
   -1.0673   -2.9169   30.7628 C   0  0  0  0  0  0  0  0  0  0  0  0
   -1.1482   -3.1210   32.2718 C   0  0  0  0  0  0  0  0  0  0  0  0
    0.2206   -3.0783   32.9378 N   0  0  0  0  0  0  0  0  0  0  0  0
    0.9452   -4.3707   32.7316 C   0  0  0  0  0  0  0  0  0  0  0  0
    1.6828   -4.6978   31.8657 O   0  0  0  0  0  0  0  0  0  0  0  0
    0.5549   -5.1016   34.0002 N   0  0  0  0  0  0  0  0  0  0  0  0
    1.0638   -6.3716   34.5726 C   0  0  0  0  0  0  0  0  0  0  0  0
   -0.7006   -5.9794   33.7573 C   0  0  0  0  0  0  0  0  0  0  0  0
   -0.7681   -6.8063   32.4959 C   0  0  0  0  0  0  0  0  0  0  0  0
   -0.9369   -6.3753   31.2642 N   0  0  0  0  0  0  0  0  0  0  0  0
   -0.8856   -7.4852   30.4797 C   0  0  0  0  0  0  0  0  0  0  0  0
   -0.7656   -8.6197   31.2313 C   0  0  0  0  0  0  0  0  0  0  0  0
   -0.7547   -8.1811   32.5206 N   0  0  0  0  0  0  0  0  0  0  0  0
    0.2980   -1.7833   32.1797 C   0  0  0  0  0  0  0  0  0  0  0  0
   -2.6422   -1.2374   28.3015 H   0  0  0  0  0  0  0  0  0  0  0  0
   -1.7472   -0.9944   26.8060 H   0  0  0  0  0  0  0  0  0  0  0  0
   -1.1549   -2.1463   28.0109 H   0  0  0  0  0  0  0  0  0  0  0  0
    0.2288   -0.1716   28.2307 H   0  0  0  0  0  0  0  0  0  0  0  0
   -0.7324    2.0976   28.5462 H   0  0  0  0  0  0  0  0  0  0  0  0
   -1.2674    1.4074   27.0083 H   0  0  0  0  0  0  0  0  0  0  0  0
   -2.3697    1.4500   28.3948 H   0  0  0  0  0  0  0  0  0  0  0  0
    0.7346   -1.9584   30.0486 H   0  0  0  0  0  0  0  0  0  0  0  0
   -2.0479   -2.7346   30.3199 H   0  0  0  0  0  0  0  0  0  0  0  0
   -0.6311   -3.7978   30.2797 H   0  0  0  0  0  0  0  0  0  0  0  0
   -1.6317   -4.0789   32.3942 H   0  0  0  0  0  0  0  0  0  0  0  0
   -1.8252   -2.4059   32.7694 H   0  0  0  0  0  0  0  0  0  0  0  0
    0.6110   -6.6755   35.5273 H   0  0  0  0  0  0  0  0  0  0  0  0
    2.0863   -6.0965   34.8748 H   0  0  0  0  0  0  0  0  0  0  0  0
    1.2662   -7.1786   33.8585 H   0  0  0  0  0  0  0  0  0  0  0  0
   -1.0509   -6.5653   34.6285 H   0  0  0  0  0  0  0  0  0  0  0  0
   -1.5316   -5.2734   33.7314 H   0  0  0  0  0  0  0  0  0  0  0  0
   -1.0048   -7.4198   29.4150 H   0  0  0  0  0  0  0  0  0  0  0  0
   -0.7247   -9.6636   30.9629 H   0  0  0  0  0  0  0  0  0  0  0  0
   -0.7284   -8.7588   33.3560 H   0  0  0  0  0  0  0  0  0  0  0  0
   -0.1982   -1.0114   32.7916 H   0  0  0  0  0  0  0  0  0  0  0  0
    1.3622   -1.5106   32.2192 H   0  0  0  0  0  0  0  0  0  0  0  0
  1  2  1  0
  2  3  1  0
  2  4  1  0
  4  5  2  0
  4  6  2  0
  4  7  1  0
  7  8  1  0
  8  9  1  0
  9 10  1  0
 10 11  1  0
 11 12  2  0
 11 13  1  0
 13 14  1  0
 13 15  1  0
 15 16  1  0
 16 17  2  0
 17 18  1  0
 18 19  2  0
 19 20  1  0
 10 21  1  0
 21  7  1  0
 20 16  1  0
  1 22  1  0
  1 23  1  0
  1 24  1  0
  2 25  1  0
  3 26  1  0
  3 27  1  0
  3 28  1  0
  7 29  1  0
  8 30  1  0
  8 31  1  0
  9 32  1  0
  9 33  1  0
 14 34  1  0
 14 35  1  0
 14 36  1  0
 15 37  1  0
 15 38  1  0
 18 39  1  0
 19 40  1  0
 20 41  1  0
 21 42  1  0
 21 43  1  0
M  END
>  <Energy>  (1004) 
79.942620160074654

>  <compound_id>  (1004) 
18086

>  <target_id>  (1004) 
1

>  <reference_id>  (1004) 
53

>  <inspiration_ids>  (1004) 
[53, 116]

>  <energy_score>  (1004) 
95.86386031212169

>  <distance_score>  (1004) 
8.4184941530614

>  <path>  (1004) 
/opt/xchem-fragalysis-2/maxwin/BulkDock/SCRATCH/511021/C18086-P53/C18086-P53.minimised.mol

>  <scratch_subdir>  (1004) 
/opt/xchem-fragalysis-2/maxwin/BulkDock/SCRATCH/511021/C18086-P53

>  <fragmenstein_runtime>  (1004) 
16.65791344642639

>  <fragmenstein_outcome>  (1004) 
too moved

>  <fragmenstein_mode>  (1004) 
expansion

>  <fragmenstein_error>  (1004) 


$$$$
C18086-P116
     RDKit          3D

 43 44  0  0  0  0  0  0  0  0999 V2000
   -3.3754    3.1951   25.4979 C   0  0  0  0  0  0  0  0  0  0  0  0
   -2.5450    4.2626   24.8019 C   0  0  0  0  0  0  0  0  0  0  0  0
   -2.9447    4.3577   23.3288 C   0  0  0  0  0  0  0  0  0  0  0  0
   -0.7878    3.9361   24.9329 S   0  0  0  0  0  0  0  0  0  0  0  0
   -0.0990    5.0836   24.3693 O   0  0  0  0  0  0  0  0  0  0  0  0
   -0.5684    2.6208   24.3707 O   0  0  0  0  0  0  0  0  0  0  0  0
   -0.3553    3.8996   26.6531 C   0  0  0  0  0  0  0  0  0  0  0  0
   -0.9410    2.8704   27.5403 C   0  0  0  0  0  0  0  0  0  0  0  0
    0.3121    2.4974   28.3216 C   0  0  0  0  0  0  0  0  0  0  0  0
    1.4082    2.1360   27.3550 N   0  0  0  0  0  0  0  0  0  0  0  0
    2.6167    1.6062   28.0933 C   0  0  0  0  0  0  0  0  0  0  0  0
    3.5508    2.1932   28.5087 O   0  0  0  0  0  0  0  0  0  0  0  0
    2.3541    0.1436   28.0559 N   0  0  0  0  0  0  0  0  0  0  0  0
    3.2259   -1.0041   28.4218 C   0  0  0  0  0  0  0  0  0  0  0  0
    1.6178   -0.2981   29.3333 C   0  0  0  0  0  0  0  0  0  0  0  0
    0.4507   -1.2096   29.0905 C   0  0  0  0  0  0  0  0  0  0  0  0
   -0.0924   -2.0224   29.9766 N   0  0  0  0  0  0  0  0  0  0  0  0
   -1.2265   -2.5058   29.3848 C   0  0  0  0  0  0  0  0  0  0  0  0
   -1.3732   -1.9700   28.1344 C   0  0  0  0  0  0  0  0  0  0  0  0
   -0.2490   -1.2324   27.9162 N   0  0  0  0  0  0  0  0  0  0  0  0
    1.1020    3.5305   26.8412 C   0  0  0  0  0  0  0  0  0  0  0  0
   -3.3338    3.3116   26.5819 H   0  0  0  0  0  0  0  0  0  0  0  0
   -3.0226    2.1869   25.2657 H   0  0  0  0  0  0  0  0  0  0  0  0
   -4.4277    3.2563   25.2109 H   0  0  0  0  0  0  0  0  0  0  0  0
   -2.6951    5.2414   25.2564 H   0  0  0  0  0  0  0  0  0  0  0  0
   -2.7783    3.4083   22.8090 H   0  0  0  0  0  0  0  0  0  0  0  0
   -4.0027    4.6206   23.2280 H   0  0  0  0  0  0  0  0  0  0  0  0
   -2.3610    5.1251   22.8099 H   0  0  0  0  0  0  0  0  0  0  0  0
   -0.5367    4.9135   27.0291 H   0  0  0  0  0  0  0  0  0  0  0  0
   -1.3217    1.9988   26.9977 H   0  0  0  0  0  0  0  0  0  0  0  0
   -1.7245    3.2596   28.1949 H   0  0  0  0  0  0  0  0  0  0  0  0
    0.6374    3.2320   29.0774 H   0  0  0  0  0  0  0  0  0  0  0  0
    0.0133    1.6191   28.8843 H   0  0  0  0  0  0  0  0  0  0  0  0
    2.7601   -1.9990   28.4287 H   0  0  0  0  0  0  0  0  0  0  0  0
    3.9232   -1.0594   27.5726 H   0  0  0  0  0  0  0  0  0  0  0  0
    3.9045   -0.7934   29.2627 H   0  0  0  0  0  0  0  0  0  0  0  0
    1.2290    0.6009   29.8174 H   0  0  0  0  0  0  0  0  0  0  0  0
    2.2168   -0.6649   30.1903 H   0  0  0  0  0  0  0  0  0  0  0  0
   -1.8840   -3.1890   29.9001 H   0  0  0  0  0  0  0  0  0  0  0  0
   -2.1375   -2.0528   27.3775 H   0  0  0  0  0  0  0  0  0  0  0  0
   -0.0129   -0.7177   27.0751 H   0  0  0  0  0  0  0  0  0  0  0  0
    1.6252    4.2603   27.4839 H   0  0  0  0  0  0  0  0  0  0  0  0
    1.6623    3.5925   25.8986 H   0  0  0  0  0  0  0  0  0  0  0  0
  1  2  1  0
  2  3  1  0
  2  4  1  0
  4  5  2  0
  4  6  2  0
  4  7  1  0
  7  8  1  0
  8  9  1  0
  9 10  1  0
 10 11  1  0
 11 12  2  0
 11 13  1  0
 13 14  1  0
 13 15  1  0
 15 16  1  0
 16 17  2  0
 17 18  1  0
 18 19  2  0
 19 20  1  0
 10 21  1  0
 21  7  1  0
 20 16  1  0
  1 22  1  0
  1 23  1  0
  1 24  1  0
  2 25  1  0
  3 26  1  0
  3 27  1  0
  3 28  1  0
  7 29  1  0
  8 30  1  0
  8 31  1  0
  9 32  1  0
  9 33  1  0
 14 34  1  0
 14 35  1  0
 14 36  1  0
 15 37  1  0
 15 38  1  0
 18 39  1  0
 19 40  1  0
 20 41  1  0
 21 42  1  0
 21 43  1  0
M  END
>  <Energy>  (1005) 
74.868594190444213

>  <compound_id>  (1005) 
18086

>  <target_id>  (1005) 
1

>  <reference_id>  (1005) 
116

>  <inspiration_ids>  (1005) 
[53, 116]

>  <energy_score>  (1005) 
90.78983434248869

>  <distance_score>  (1005) 
7.978835269629919

>  <path>  (1005) 
/opt/xchem-fragalysis-2/maxwin/BulkDock/SCRATCH/511021/C18086-P116/C18086-P116.minimised.mol

>  <scratch_subdir>  (1005) 
/opt/xchem-fragalysis-2/maxwin/BulkDock/SCRATCH/511021/C18086-P116

>  <fragmenstein_runtime>  (1005) 
18.64785075187683

>  <fragmenstein_outcome>  (1005) 
too moved

>  <fragmenstein_mode>  (1005) 
expansion

>  <fragmenstein_error>  (1005) 


$$$$
C18087-P53
     RDKit          3D

 42 45  0  0  0  0  0  0  0  0999 V2000
   -3.0406    2.0368   26.2692 C   0  0  0  0  0  0  0  0  0  0  0  0
   -1.9994    2.7001   27.1447 C   0  0  0  0  0  0  0  0  0  0  0  0
   -1.5824    3.9041   26.4871 O   0  0  0  0  0  0  0  0  0  0  0  0
   -0.7552    1.8298   27.3847 C   0  0  0  0  0  0  0  0  0  0  0  0
   -0.9233    0.6728   28.2342 N   0  0  0  0  0  0  0  0  0  0  0  0
   -1.9688    0.3922   29.0585 C   0  0  0  0  0  0  0  0  0  0  0  0
   -1.8689   -0.7873   29.6373 N   0  0  0  0  0  0  0  0  0  0  0  0
   -0.6802   -1.3193   29.1624 C   0  0  0  0  0  0  0  0  0  0  0  0
   -0.0244   -2.6142   29.4001 C   0  0  0  0  0  0  0  0  0  0  0  0
   -0.5392   -3.7016   30.2204 N   0  0  0  0  0  0  0  0  0  0  0  0
   -0.9739   -3.1247   31.5154 C   0  0  0  0  0  0  0  0  0  0  0  0
   -0.3791   -4.0277   32.5940 C   0  0  0  0  0  0  0  0  0  0  0  0
    0.8602   -4.5981   31.9254 C   0  0  0  0  0  0  0  0  0  0  0  0
    0.3474   -4.9075   30.5047 C   0  0  0  0  0  0  0  0  0  0  0  0
   -0.2046   -6.4302   30.5369 C   0  0  0  0  0  0  0  0  0  0  0  0
   -1.1614   -7.0067   31.2553 N   0  0  0  0  0  0  0  0  0  0  0  0
   -1.0281   -8.3663   31.0996 C   0  0  0  0  0  0  0  0  0  0  0  0
   -0.1279   -8.6240   30.1087 C   0  0  0  0  0  0  0  0  0  0  0  0
    0.5436   -7.4473   29.9879 N   0  0  0  0  0  0  0  0  0  0  0  0
    1.2084   -2.7321   28.8085 N   0  0  0  0  0  0  0  0  0  0  0  0
    1.7124   -1.6780   28.0953 C   0  0  0  0  0  0  0  0  0  0  0  0
    1.1835   -0.4571   27.8274 N   0  0  0  0  0  0  0  0  0  0  0  0
   -0.0396   -0.3650   28.3649 C   0  0  0  0  0  0  0  0  0  0  0  0
   -2.6133    1.8596   25.2796 H   0  0  0  0  0  0  0  0  0  0  0  0
   -3.3846    1.0874   26.6775 H   0  0  0  0  0  0  0  0  0  0  0  0
   -3.9068    2.6910   26.1276 H   0  0  0  0  0  0  0  0  0  0  0  0
   -2.4409    3.0049   28.0980 H   0  0  0  0  0  0  0  0  0  0  0  0
   -2.3641    4.4942   26.4314 H   0  0  0  0  0  0  0  0  0  0  0  0
    0.0304    2.4395   27.8488 H   0  0  0  0  0  0  0  0  0  0  0  0
   -0.3543    1.4839   26.4253 H   0  0  0  0  0  0  0  0  0  0  0  0
   -2.7832    1.0780   29.1973 H   0  0  0  0  0  0  0  0  0  0  0  0
   -2.0649   -3.0833   31.5756 H   0  0  0  0  0  0  0  0  0  0  0  0
   -0.5875   -2.1121   31.6914 H   0  0  0  0  0  0  0  0  0  0  0  0
   -1.0783   -4.8277   32.8557 H   0  0  0  0  0  0  0  0  0  0  0  0
   -0.1455   -3.4773   33.5101 H   0  0  0  0  0  0  0  0  0  0  0  0
    1.6451   -3.8326   31.8855 H   0  0  0  0  0  0  0  0  0  0  0  0
    1.2580   -5.4678   32.4576 H   0  0  0  0  0  0  0  0  0  0  0  0
    1.1955   -4.9338   29.8099 H   0  0  0  0  0  0  0  0  0  0  0  0
   -1.6583   -9.0474   31.6535 H   0  0  0  0  0  0  0  0  0  0  0  0
    0.1695   -9.5164   29.5940 H   0  0  0  0  0  0  0  0  0  0  0  0
    1.3979   -7.2801   29.4821 H   0  0  0  0  0  0  0  0  0  0  0  0
    2.7001   -1.8452   27.6716 H   0  0  0  0  0  0  0  0  0  0  0  0
  1  2  1  0
  2  3  1  0
  2  4  1  0
  4  5  1  0
  5  6  1  0
  6  7  2  0
  7  8  1  0
  8  9  2  0
  9 10  1  0
 10 11  1  0
 11 12  1  0
 12 13  1  0
 13 14  1  0
 14 15  1  0
 15 16  2  0
 16 17  1  0
 17 18  2  0
 18 19  1  0
  9 20  1  0
 20 21  2  0
 21 22  1  0
 22 23  2  0
 23  5  1  0
 23  8  1  0
 14 10  1  0
 19 15  1  0
  1 24  1  0
  1 25  1  0
  1 26  1  0
  2 27  1  0
  3 28  1  0
  4 29  1  0
  4 30  1  0
  6 31  1  0
 11 32  1  0
 11 33  1  0
 12 34  1  0
 12 35  1  0
 13 36  1  0
 13 37  1  0
 14 38  1  0
 17 39  1  0
 18 40  1  0
 19 41  1  0
 21 42  1  0
M  END
>  <Energy>  (1006) 
62.527527073293221

>  <compound_id>  (1006) 
18087

>  <target_id>  (1006) 
1

>  <reference_id>  (1006) 
53

>  <inspiration_ids>  (1006) 
[53, 116]

>  <energy_score>  (1006) 
-12.435222820543231

>  <distance_score>  (1006) 
4.74892840337215

>  <path>  (1006) 
/opt/xchem-fragalysis-2/maxwin/BulkDock/SCRATCH/511021/C18087-P53/C18087-P53.minimised.mol

>  <scratch_subdir>  (1006) 
/opt/xchem-fragalysis-2/maxwin/BulkDock/SCRATCH/511021/C18087-P53

>  <fragmenstein_runtime>  (1006) 
8.131773710250854

>  <fragmenstein_outcome>  (1006) 
too moved

>  <fragmenstein_mode>  (1006) 
expansion

>  <fragmenstein_error>  (1006) 


$$$$
C18087-P116
     RDKit          3D

 42 45  0  0  0  0  0  0  0  0999 V2000
   -2.0638    3.1819   27.4306 C   0  0  0  0  0  0  0  0  0  0  0  0
   -0.6879    2.5330   27.3977 C   0  0  0  0  0  0  0  0  0  0  0  0
   -0.2897    2.3325   26.0415 O   0  0  0  0  0  0  0  0  0  0  0  0
   -0.5300    1.2427   28.2305 C   0  0  0  0  0  0  0  0  0  0  0  0
   -1.2041    0.0391   27.8030 N   0  0  0  0  0  0  0  0  0  0  0  0
   -2.0523   -0.1171   26.7646 C   0  0  0  0  0  0  0  0  0  0  0  0
   -2.3462   -1.3818   26.5860 N   0  0  0  0  0  0  0  0  0  0  0  0
   -1.5501   -2.1283   27.4543 C   0  0  0  0  0  0  0  0  0  0  0  0
   -1.2783   -3.6389   27.6537 C   0  0  0  0  0  0  0  0  0  0  0  0
   -1.7850   -5.0245   26.5797 N   0  0  0  0  0  0  0  0  0  0  0  0
   -3.4982   -4.1247   25.8989 C   0  0  0  0  0  0  0  0  0  0  0  0
   -5.2378   -5.4303   26.9435 C   0  0  0  0  0  0  0  0  0  0  0  0
   -3.5611   -6.9806   27.1268 C   0  0  0  0  0  0  0  0  0  0  0  0
   -1.9906   -6.4042   27.4437 C   0  0  0  0  0  0  0  0  0  0  0  0
   -1.0982   -7.7101   27.5922 C   0  0  0  0  0  0  0  0  0  0  0  0
   -0.9015   -8.2978   28.8070 N   0  0  0  0  0  0  0  0  0  0  0  0
   -0.3436   -9.5709   28.6278 C   0  0  0  0  0  0  0  0  0  0  0  0
   -0.1623   -9.7751   27.2769 C   0  0  0  0  0  0  0  0  0  0  0  0
   -0.5514   -8.5634   26.6189 N   0  0  0  0  0  0  0  0  0  0  0  0
   -1.1758   -3.7970   29.0028 N   0  0  0  0  0  0  0  0  0  0  0  0
   -0.9150   -2.7574   29.8714 C   0  0  0  0  0  0  0  0  0  0  0  0
   -0.6690   -1.4585   29.6260 N   0  0  0  0  0  0  0  0  0  0  0  0
   -1.0763   -1.2018   28.3829 C   0  0  0  0  0  0  0  0  0  0  0  0
   -2.8620    2.5215   27.0889 H   0  0  0  0  0  0  0  0  0  0  0  0
   -2.3010    3.5203   28.4376 H   0  0  0  0  0  0  0  0  0  0  0  0
   -2.0854    4.0559   26.7708 H   0  0  0  0  0  0  0  0  0  0  0  0
    0.0210    3.2603   27.8137 H   0  0  0  0  0  0  0  0  0  0  0  0
   -0.3117    3.2055   25.6074 H   0  0  0  0  0  0  0  0  0  0  0  0
   -0.8245    1.4235   29.2673 H   0  0  0  0  0  0  0  0  0  0  0  0
    0.5362    0.9794   28.2317 H   0  0  0  0  0  0  0  0  0  0  0  0
   -2.4173    0.6821   26.1389 H   0  0  0  0  0  0  0  0  0  0  0  0
   -3.1355   -4.1173   24.7716 H   0  0  0  0  0  0  0  0  0  0  0  0
   -3.5512   -2.9727   26.1498 H   0  0  0  0  0  0  0  0  0  0  0  0
   -6.0412   -5.7090   27.7686 H   0  0  0  0  0  0  0  0  0  0  0  0
   -5.2305   -4.4034   27.9704 H   0  0  0  0  0  0  0  0  0  0  0  0
   -3.8740   -7.7693   27.8041 H   0  0  0  0  0  0  0  0  0  0  0  0
   -3.0718   -7.5072   26.2994 H   0  0  0  0  0  0  0  0  0  0  0  0
   -1.8745   -6.0817   28.4503 H   0  0  0  0  0  0  0  0  0  0  0  0
   -0.1471  -10.2311   29.4635 H   0  0  0  0  0  0  0  0  0  0  0  0
    0.1290  -10.6578   26.7264 H   0  0  0  0  0  0  0  0  0  0  0  0
   -0.8520   -8.5402   25.6608 H   0  0  0  0  0  0  0  0  0  0  0  0
   -0.8689   -3.0423   30.9203 H   0  0  0  0  0  0  0  0  0  0  0  0
  1  2  1  0
  2  3  1  0
  2  4  1  0
  4  5  1  0
  5  6  1  0
  6  7  2  0
  7  8  1  0
  8  9  2  0
  9 10  1  0
 10 11  1  0
 11 12  1  0
 12 13  1  0
 13 14  1  0
 14 15  1  0
 15 16  2  0
 16 17  1  0
 17 18  2  0
 18 19  1  0
  9 20  1  0
 20 21  2  0
 21 22  1  0
 22 23  2  0
 23  5  1  0
 23  8  1  0
 14 10  1  0
 19 15  1  0
  1 24  1  0
  1 25  1  0
  1 26  1  0
  2 27  1  0
  3 28  1  0
  4 29  1  0
  4 30  1  0
  6 31  1  0
 11 32  1  0
 11 33  1  0
 12 34  1  0
 12 35  1  0
 13 36  1  0
 13 37  1  0
 14 38  1  0
 17 39  1  0
 18 40  1  0
 19 41  1  0
 21 42  1  0
M  END
>  <Energy>  (1007) 
793.50327762511461

>  <compound_id>  (1007) 
18087

>  <target_id>  (1007) 
1

>  <reference_id>  (1007) 
116

>  <inspiration_ids>  (1007) 
[53, 116]

>  <energy_score>  (1007) 
691.5032740771143

>  <distance_score>  (1007) 
4.239747894429446

>  <path>  (1007) 
/opt/xchem-fragalysis-2/maxwin/BulkDock/SCRATCH/511021/C18087-P116/C18087-P116.minimised.mol

>  <scratch_subdir>  (1007) 
/opt/xchem-fragalysis-2/maxwin/BulkDock/SCRATCH/511021/C18087-P116

>  <fragmenstein_runtime>  (1007) 
10.232824325561523

>  <fragmenstein_outcome>  (1007) 
too moved

>  <fragmenstein_mode>  (1007) 
expansion

>  <fragmenstein_error>  (1007) 


$$$$
C18088-P53
     RDKit          3D

 42 45  0  0  0  0  0  0  0  0999 V2000
   -1.7128    3.8855   27.7000 C   0  0  0  0  0  0  0  0  0  0  0  0
   -0.5250    2.9509   27.8305 C   0  0  0  0  0  0  0  0  0  0  0  0
   -0.4773    2.3506   29.1245 O   0  0  0  0  0  0  0  0  0  0  0  0
   -0.5212    1.9200   26.7190 C   0  0  0  0  0  0  0  0  0  0  0  0
   -1.6062    0.9675   26.7733 N   0  0  0  0  0  0  0  0  0  0  0  0
   -2.7702    1.0487   26.1020 C   0  0  0  0  0  0  0  0  0  0  0  0
   -3.1881   -0.1607   25.7909 N   0  0  0  0  0  0  0  0  0  0  0  0
   -2.3754   -1.0817   26.4108 C   0  0  0  0  0  0  0  0  0  0  0  0
   -2.1883   -2.5294   26.3706 C   0  0  0  0  0  0  0  0  0  0  0  0
   -2.7779   -3.9804   25.4018 N   0  0  0  0  0  0  0  0  0  0  0  0
   -1.9732   -4.9742   24.1502 C   0  0  0  0  0  0  0  0  0  0  0  0
   -1.8754   -6.5645   24.4457 C   0  0  0  0  0  0  0  0  0  0  0  0
   -2.2876   -7.5628   26.0604 C   0  0  0  0  0  0  0  0  0  0  0  0
   -1.7176   -9.6483   26.2168 C   0  0  0  0  0  0  0  0  0  0  0  0
   -0.5764   -9.4672   27.5677 N   0  0  0  0  0  0  0  0  0  0  0  0
   -0.9837  -10.0108   28.8159 C   0  0  0  0  0  0  0  0  0  0  0  0
   -1.9159  -11.0632   28.5460 C   0  0  0  0  0  0  0  0  0  0  0  0
   -2.1243  -11.1313   27.0923 N   0  0  0  0  0  0  0  0  0  0  0  0
   -1.9461   -5.5532   26.3186 C   0  0  0  0  0  0  0  0  0  0  0  0
   -1.1431   -2.8805   27.4258 N   0  0  0  0  0  0  0  0  0  0  0  0
   -0.4778   -2.0010   28.1762 C   0  0  0  0  0  0  0  0  0  0  0  0
   -0.5480   -0.6849   28.0931 N   0  0  0  0  0  0  0  0  0  0  0  0
   -1.4788   -0.3232   27.1983 C   0  0  0  0  0  0  0  0  0  0  0  0
   -1.5183    4.8054   28.2554 H   0  0  0  0  0  0  0  0  0  0  0  0
   -2.6256    3.4376   28.0990 H   0  0  0  0  0  0  0  0  0  0  0  0
   -1.8803    4.1790   26.6588 H   0  0  0  0  0  0  0  0  0  0  0  0
    0.3888    3.5484   27.7318 H   0  0  0  0  0  0  0  0  0  0  0  0
   -0.2689    1.4008   29.0244 H   0  0  0  0  0  0  0  0  0  0  0  0
    0.4155    1.3505   26.7559 H   0  0  0  0  0  0  0  0  0  0  0  0
   -0.5542    2.4059   25.7360 H   0  0  0  0  0  0  0  0  0  0  0  0
   -3.2179    1.9783   25.7701 H   0  0  0  0  0  0  0  0  0  0  0  0
   -2.7638   -4.9875   23.4856 H   0  0  0  0  0  0  0  0  0  0  0  0
   -0.9917   -4.6814   23.7925 H   0  0  0  0  0  0  0  0  0  0  0  0
   -1.1900   -7.1047   23.8544 H   0  0  0  0  0  0  0  0  0  0  0  0
   -2.4441   -6.6741   23.5354 H   0  0  0  0  0  0  0  0  0  0  0  0
   -3.1266   -7.5068   26.7351 H   0  0  0  0  0  0  0  0  0  0  0  0
   -0.5694   -9.6622   29.7566 H   0  0  0  0  0  0  0  0  0  0  0  0
   -2.5815  -11.6904   29.1150 H   0  0  0  0  0  0  0  0  0  0  0  0
   -2.5766  -11.8425   26.5354 H   0  0  0  0  0  0  0  0  0  0  0  0
   -1.0247   -5.3185   25.8141 H   0  0  0  0  0  0  0  0  0  0  0  0
   -1.7910   -5.3263   27.4090 H   0  0  0  0  0  0  0  0  0  0  0  0
    0.2160   -2.4135   28.8978 H   0  0  0  0  0  0  0  0  0  0  0  0
  1  2  1  0
  2  3  1  0
  2  4  1  0
  4  5  1  0
  5  6  1  0
  6  7  2  0
  7  8  1  0
  8  9  2  0
  9 10  1  0
 10 11  1  0
 11 12  1  0
 12 13  1  0
 13 14  1  0
 14 15  2  0
 15 16  1  0
 16 17  2  0
 17 18  1  0
 13 19  1  0
  9 20  1  0
 20 21  2  0
 21 22  1  0
 22 23  2  0
 23  5  1  0
 23  8  1  0
 19 10  1  0
 18 14  1  0
  1 24  1  0
  1 25  1  0
  1 26  1  0
  2 27  1  0
  3 28  1  0
  4 29  1  0
  4 30  1  0
  6 31  1  0
 11 32  1  0
 11 33  1  0
 12 34  1  0
 12 35  1  0
 13 36  1  0
 16 37  1  0
 17 38  1  0
 18 39  1  0
 19 40  1  0
 19 41  1  0
 21 42  1  0
M  END
>  <Energy>  (1008) 
832.51474595730713

>  <compound_id>  (1008) 
18088

>  <target_id>  (1008) 
1

>  <reference_id>  (1008) 
53

>  <inspiration_ids>  (1008) 
[53, 116]

>  <energy_score>  (1008) 
763.6512207826781

>  <distance_score>  (1008) 
3.4101343769756634

>  <path>  (1008) 
/opt/xchem-fragalysis-2/maxwin/BulkDock/SCRATCH/511021/C18088-P53/C18088-P53.minimised.mol

>  <scratch_subdir>  (1008) 
/opt/xchem-fragalysis-2/maxwin/BulkDock/SCRATCH/511021/C18088-P53

>  <fragmenstein_runtime>  (1008) 
9.945289611816406

>  <fragmenstein_outcome>  (1008) 
too moved

>  <fragmenstein_mode>  (1008) 
expansion

>  <fragmenstein_error>  (1008) 


$$$$
C18088-P116
     RDKit          3D

 42 45  0  0  0  0  0  0  0  0999 V2000
   -1.6687    3.5968   25.3674 C   0  0  0  0  0  0  0  0  0  0  0  0
   -0.6156    3.6698   26.4669 C   0  0  0  0  0  0  0  0  0  0  0  0
    0.5177    2.9068   26.0510 O   0  0  0  0  0  0  0  0  0  0  0  0
   -1.1071    3.2476   27.8603 C   0  0  0  0  0  0  0  0  0  0  0  0
   -1.3109    1.8290   28.0415 N   0  0  0  0  0  0  0  0  0  0  0  0
   -2.1783    1.0612   27.3251 C   0  0  0  0  0  0  0  0  0  0  0  0
   -2.1348   -0.1936   27.6982 N   0  0  0  0  0  0  0  0  0  0  0  0
   -1.2608   -0.2380   28.7645 C   0  0  0  0  0  0  0  0  0  0  0  0
   -0.7899   -1.3222   29.5683 C   0  0  0  0  0  0  0  0  0  0  0  0
   -0.8199   -2.6624   29.1901 N   0  0  0  0  0  0  0  0  0  0  0  0
   -0.9869   -2.8368   27.7677 C   0  0  0  0  0  0  0  0  0  0  0  0
   -0.9342   -4.3800   27.5416 C   0  0  0  0  0  0  0  0  0  0  0  0
   -1.3592   -5.0669   28.7830 C   0  0  0  0  0  0  0  0  0  0  0  0
   -1.3592   -6.8097   29.5318 C   0  0  0  0  0  0  0  0  0  0  0  0
   -1.0806   -7.9514   28.9219 N   0  0  0  0  0  0  0  0  0  0  0  0
   -0.6773   -8.8352   29.9071 C   0  0  0  0  0  0  0  0  0  0  0  0
   -0.9168   -8.3151   31.1495 C   0  0  0  0  0  0  0  0  0  0  0  0
   -1.3944   -7.0598   30.9120 N   0  0  0  0  0  0  0  0  0  0  0  0
   -1.6975   -3.6776   29.7580 C   0  0  0  0  0  0  0  0  0  0  0  0
   -0.0149   -0.9841   30.6383 N   0  0  0  0  0  0  0  0  0  0  0  0
    0.3681    0.3073   30.7809 C   0  0  0  0  0  0  0  0  0  0  0  0
    0.0757    1.3778   30.0080 N   0  0  0  0  0  0  0  0  0  0  0  0
   -0.7592    1.0292   29.0145 C   0  0  0  0  0  0  0  0  0  0  0  0
   -2.6303    4.0012   25.6941 H   0  0  0  0  0  0  0  0  0  0  0  0
   -1.3337    4.1807   24.5019 H   0  0  0  0  0  0  0  0  0  0  0  0
   -1.8037    2.5789   24.9915 H   0  0  0  0  0  0  0  0  0  0  0  0
   -0.2920    4.7157   26.5357 H   0  0  0  0  0  0  0  0  0  0  0  0
    1.2177    3.0183   26.7195 H   0  0  0  0  0  0  0  0  0  0  0  0
   -0.3611    3.5600   28.6002 H   0  0  0  0  0  0  0  0  0  0  0  0
   -2.0493    3.7488   28.1078 H   0  0  0  0  0  0  0  0  0  0  0  0
   -2.8306    1.4493   26.5550 H   0  0  0  0  0  0  0  0  0  0  0  0
   -1.9142   -2.4061   27.3895 H   0  0  0  0  0  0  0  0  0  0  0  0
   -0.1416   -2.3219   27.3032 H   0  0  0  0  0  0  0  0  0  0  0  0
   -0.0422   -4.4786   27.0098 H   0  0  0  0  0  0  0  0  0  0  0  0
   -1.4302   -4.9472   26.7504 H   0  0  0  0  0  0  0  0  0  0  0  0
   -2.0853   -5.6112   28.2103 H   0  0  0  0  0  0  0  0  0  0  0  0
   -0.2702   -9.8094   29.6618 H   0  0  0  0  0  0  0  0  0  0  0  0
   -0.7122   -8.6901   32.1415 H   0  0  0  0  0  0  0  0  0  0  0  0
   -1.4063   -6.3129   31.5871 H   0  0  0  0  0  0  0  0  0  0  0  0
   -1.5624   -3.8118   30.8370 H   0  0  0  0  0  0  0  0  0  0  0  0
   -2.6991   -3.2912   29.6041 H   0  0  0  0  0  0  0  0  0  0  0  0
    1.0144    0.5079   31.6312 H   0  0  0  0  0  0  0  0  0  0  0  0
  1  2  1  0
  2  3  1  0
  2  4  1  0
  4  5  1  0
  5  6  1  0
  6  7  2  0
  7  8  1  0
  8  9  2  0
  9 10  1  0
 10 11  1  0
 11 12  1  0
 12 13  1  0
 13 14  1  0
 14 15  2  0
 15 16  1  0
 16 17  2  0
 17 18  1  0
 13 19  1  0
  9 20  1  0
 20 21  2  0
 21 22  1  0
 22 23  2  0
 23  5  1  0
 23  8  1  0
 19 10  1  0
 18 14  1  0
  1 24  1  0
  1 25  1  0
  1 26  1  0
  2 27  1  0
  3 28  1  0
  4 29  1  0
  4 30  1  0
  6 31  1  0
 11 32  1  0
 11 33  1  0
 12 34  1  0
 12 35  1  0
 13 36  1  0
 16 37  1  0
 17 38  1  0
 18 39  1  0
 19 40  1  0
 19 41  1  0
 21 42  1  0
M  END
>  <Energy>  (1009) 
177.82353494133611

>  <compound_id>  (1009) 
18088

>  <target_id>  (1009) 
1

>  <reference_id>  (1009) 
116

>  <inspiration_ids>  (1009) 
[53, 116]

>  <energy_score>  (1009) 
108.960009766707

>  <distance_score>  (1009) 
4.362835454746665

>  <path>  (1009) 
/opt/xchem-fragalysis-2/maxwin/BulkDock/SCRATCH/511021/C18088-P116/C18088-P116.minimised.mol

>  <scratch_subdir>  (1009) 
/opt/xchem-fragalysis-2/maxwin/BulkDock/SCRATCH/511021/C18088-P116

>  <fragmenstein_runtime>  (1009) 
8.724891185760498

>  <fragmenstein_outcome>  (1009) 
too moved

>  <fragmenstein_mode>  (1009) 
expansion

>  <fragmenstein_error>  (1009) 


$$$$
C46378-P53
     RDKit          3D

 27 28  0  0  0  0  0  0  0  0999 V2000
    1.8052   -5.2289   29.7594 O   0  0  0  0  0  0  0  0  0  0  0  0
    0.7147   -4.9808   30.1551 C   0  0  0  0  0  0  0  0  0  0  0  0
    0.0259   -5.9191   31.2384 C   0  0  0  0  0  0  0  0  0  0  0  0
   -1.1357   -5.3537   31.8416 O   0  0  0  0  0  0  0  0  0  0  0  0
   -0.2290   -7.3604   30.7479 C   0  0  0  0  0  0  0  0  0  0  0  0
   -0.7658   -8.4330   31.4420 C   0  0  0  0  0  0  0  0  0  0  0  0
   -0.6725   -9.5089   30.6088 N   0  0  0  0  0  0  0  0  0  0  0  0
   -0.1813   -9.0624   29.4344 C   0  0  0  0  0  0  0  0  0  0  0  0
    0.1428   -7.8040   29.5056 N   0  0  0  0  0  0  0  0  0  0  0  0
   -0.2870   -3.8795   29.7124 N   0  0  0  0  0  0  0  0  0  0  0  0
   -0.2072   -2.8770   28.5900 C   0  0  0  0  0  0  0  0  0  0  0  0
   -1.1549   -1.6967   28.6765 C   0  0  0  0  0  0  0  0  0  0  0  0
   -1.1005   -1.4997   30.1436 C   0  0  0  0  0  0  0  0  0  0  0  0
   -0.0950   -2.6016   30.5188 C   0  0  0  0  0  0  0  0  0  0  0  0
    0.7647   -5.9961   32.0470 H   0  0  0  0  0  0  0  0  0  0  0  0
   -1.4414   -4.7107   31.1760 H   0  0  0  0  0  0  0  0  0  0  0  0
   -1.1308   -8.5064   32.4572 H   0  0  0  0  0  0  0  0  0  0  0  0
   -0.7434  -10.4781   30.8678 H   0  0  0  0  0  0  0  0  0  0  0  0
   -0.0364   -9.6593   28.5615 H   0  0  0  0  0  0  0  0  0  0  0  0
   -0.4666   -3.4639   27.7094 H   0  0  0  0  0  0  0  0  0  0  0  0
    0.8411   -2.5864   28.4029 H   0  0  0  0  0  0  0  0  0  0  0  0
   -0.7948   -0.8399   28.1004 H   0  0  0  0  0  0  0  0  0  0  0  0
   -2.1688   -1.9362   28.3506 H   0  0  0  0  0  0  0  0  0  0  0  0
   -0.7547   -0.5079   30.4472 H   0  0  0  0  0  0  0  0  0  0  0  0
   -2.0750   -1.6900   30.6057 H   0  0  0  0  0  0  0  0  0  0  0  0
    0.9559   -2.2649   30.4791 H   0  0  0  0  0  0  0  0  0  0  0  0
   -0.2434   -2.8667   31.5736 H   0  0  0  0  0  0  0  0  0  0  0  0
  1  2  2  0
  2  3  1  0
  3  4  1  0
  3  5  1  0
  5  6  2  0
  6  7  1  0
  7  8  1  0
  8  9  2  0
  2 10  1  0
 10 11  1  0
 11 12  1  0
 12 13  1  0
 13 14  1  0
  9  5  1  0
 14 10  1  0
  3 15  1  0
  4 16  1  0
  6 17  1  0
  7 18  1  0
  8 19  1  0
 11 20  1  0
 11 21  1  0
 12 22  1  0
 12 23  1  0
 13 24  1  0
 13 25  1  0
 14 26  1  0
 14 27  1  0
M  END
>  <Energy>  (1010) 
138.57345821268382

>  <compound_id>  (1010) 
46378

>  <target_id>  (1010) 
1

>  <reference_id>  (1010) 
53

>  <inspiration_ids>  (1010) 
[53, 116]

>  <energy_score>  (1010) 
48.50809133746861

>  <distance_score>  (1010) 
6.198366630414715

>  <path>  (1010) 
/opt/xchem-fragalysis-2/maxwin/BulkDock/SCRATCH/511021/C46378-P53/C46378-P53.minimised.mol

>  <scratch_subdir>  (1010) 
/opt/xchem-fragalysis-2/maxwin/BulkDock/SCRATCH/511021/C46378-P53

>  <fragmenstein_runtime>  (1010) 
7.532128095626831

>  <fragmenstein_outcome>  (1010) 
too moved

>  <fragmenstein_mode>  (1010) 
expansion

>  <fragmenstein_error>  (1010) 


$$$$
C46378-P116
     RDKit          3D

 27 28  0  0  0  0  0  0  0  0999 V2000
   -0.6433   -4.2358   27.2497 O   0  0  0  0  0  0  0  0  0  0  0  0
   -1.0949   -4.4144   28.3351 C   0  0  0  0  0  0  0  0  0  0  0  0
   -1.7292   -6.2079   28.4823 C   0  0  0  0  0  0  0  0  0  0  0  0
   -1.3680   -7.1260   29.5838 O   0  0  0  0  0  0  0  0  0  0  0  0
   -1.4114   -6.8429   27.1420 C   0  0  0  0  0  0  0  0  0  0  0  0
   -0.7604   -8.0208   26.8819 C   0  0  0  0  0  0  0  0  0  0  0  0
   -1.2887   -8.2013   25.6823 N   0  0  0  0  0  0  0  0  0  0  0  0
   -1.3082   -6.9784   25.1223 C   0  0  0  0  0  0  0  0  0  0  0  0
   -1.4401   -6.1046   26.0379 N   0  0  0  0  0  0  0  0  0  0  0  0
   -1.0640   -3.4526   29.4829 N   0  0  0  0  0  0  0  0  0  0  0  0
   -0.3920   -2.1046   29.6385 C   0  0  0  0  0  0  0  0  0  0  0  0
   -0.6582   -1.1660   28.5108 C   0  0  0  0  0  0  0  0  0  0  0  0
   -2.1109   -1.3754   28.5220 C   0  0  0  0  0  0  0  0  0  0  0  0
   -2.2431   -2.6029   29.4789 C   0  0  0  0  0  0  0  0  0  0  0  0
   -2.6489   -6.6756   28.3208 H   0  0  0  0  0  0  0  0  0  0  0  0
   -0.8540   -6.5495   30.1911 H   0  0  0  0  0  0  0  0  0  0  0  0
   -0.4066   -8.8414   27.4931 H   0  0  0  0  0  0  0  0  0  0  0  0
   -1.4991   -9.1131   25.3148 H   0  0  0  0  0  0  0  0  0  0  0  0
   -1.4188   -6.7417   24.0989 H   0  0  0  0  0  0  0  0  0  0  0  0
   -0.5541   -1.6792   30.6456 H   0  0  0  0  0  0  0  0  0  0  0  0
    0.6857   -2.2991   29.6163 H   0  0  0  0  0  0  0  0  0  0  0  0
   -0.1951   -1.4985   27.5798 H   0  0  0  0  0  0  0  0  0  0  0  0
   -0.3492   -0.1387   28.7191 H   0  0  0  0  0  0  0  0  0  0  0  0
   -2.6023   -0.4925   28.9358 H   0  0  0  0  0  0  0  0  0  0  0  0
   -2.4989   -1.5723   27.5184 H   0  0  0  0  0  0  0  0  0  0  0  0
   -2.5214   -2.3238   30.5096 H   0  0  0  0  0  0  0  0  0  0  0  0
   -3.0501   -3.1593   29.0878 H   0  0  0  0  0  0  0  0  0  0  0  0
  1  2  2  0
  2  3  1  0
  3  4  1  0
  3  5  1  0
  5  6  2  0
  6  7  1  0
  7  8  1  0
  8  9  2  0
  2 10  1  0
 10 11  1  0
 11 12  1  0
 12 13  1  0
 13 14  1  0
  9  5  1  0
 14 10  1  0
  3 15  1  0
  4 16  1  0
  6 17  1  0
  7 18  1  0
  8 19  1  0
 11 20  1  0
 11 21  1  0
 12 22  1  0
 12 23  1  0
 13 24  1  0
 13 25  1  0
 14 26  1  0
 14 27  1  0
M  END
>  <Energy>  (1011) 
234.23994361342091

>  <compound_id>  (1011) 
46378

>  <target_id>  (1011) 
1

>  <reference_id>  (1011) 
116

>  <inspiration_ids>  (1011) 
[53, 116]

>  <energy_score>  (1011) 
155.2881251030775

>  <distance_score>  (1011) 
6.04753107170759

>  <path>  (1011) 
/opt/xchem-fragalysis-2/maxwin/BulkDock/SCRATCH/511021/C46378-P116/C46378-P116.minimised.mol

>  <scratch_subdir>  (1011) 
/opt/xchem-fragalysis-2/maxwin/BulkDock/SCRATCH/511021/C46378-P116

>  <fragmenstein_runtime>  (1011) 
7.133905649185181

>  <fragmenstein_outcome>  (1011) 
too moved

>  <fragmenstein_mode>  (1011) 
expansion

>  <fragmenstein_error>  (1011) 


$$$$
C46379-P53
     RDKit          3D

 36 37  0  0  0  0  0  0  0  0999 V2000
    1.4086    0.9876   29.0805 C   0  0  0  0  0  0  0  0  0  0  0  0
   -0.0931    1.2570   29.0068 C   0  0  0  0  0  0  0  0  0  0  0  0
   -0.3951    2.1722   27.8107 C   0  0  0  0  0  0  0  0  0  0  0  0
   -0.9812   -0.0075   28.9695 C   0  0  0  0  0  0  0  0  0  0  0  0
   -0.6362   -1.0528   27.9702 C   0  0  0  0  0  0  0  0  0  0  0  0
   -1.0089   -2.2658   28.7894 C   0  0  0  0  0  0  0  0  0  0  0  0
   -0.3675   -2.2568   30.1603 N   0  0  0  0  0  0  0  0  0  0  0  0
   -0.6716   -3.4926   30.8664 C   0  0  0  0  0  0  0  0  0  0  0  0
   -1.5854   -3.7664   31.6071 O   0  0  0  0  0  0  0  0  0  0  0  0
    0.5021   -4.5426   30.6344 C   0  0  0  0  0  0  0  0  0  0  0  0
    1.0867   -4.5530   29.3362 O   0  0  0  0  0  0  0  0  0  0  0  0
    0.1570   -5.9549   31.1030 C   0  0  0  0  0  0  0  0  0  0  0  0
   -0.5873   -6.9686   30.5223 C   0  0  0  0  0  0  0  0  0  0  0  0
   -0.5726   -8.0105   31.4079 N   0  0  0  0  0  0  0  0  0  0  0  0
    0.1268   -7.5999   32.4985 C   0  0  0  0  0  0  0  0  0  0  0  0
    0.6509   -6.4139   32.3122 N   0  0  0  0  0  0  0  0  0  0  0  0
   -1.0339   -0.8949   30.2182 C   0  0  0  0  0  0  0  0  0  0  0  0
    1.7993    0.5736   28.1458 H   0  0  0  0  0  0  0  0  0  0  0  0
    1.6460    0.2923   29.8916 H   0  0  0  0  0  0  0  0  0  0  0  0
    1.9531    1.9185   29.2744 H   0  0  0  0  0  0  0  0  0  0  0  0
   -0.3560    1.8141   29.9136 H   0  0  0  0  0  0  0  0  0  0  0  0
   -1.4548    2.4482   27.7904 H   0  0  0  0  0  0  0  0  0  0  0  0
   -0.1528    1.6802   26.8628 H   0  0  0  0  0  0  0  0  0  0  0  0
    0.1881    3.0971   27.8724 H   0  0  0  0  0  0  0  0  0  0  0  0
   -2.0109    0.3376   28.7956 H   0  0  0  0  0  0  0  0  0  0  0  0
   -1.2323   -0.9661   27.0595 H   0  0  0  0  0  0  0  0  0  0  0  0
    0.4231   -1.0855   27.7060 H   0  0  0  0  0  0  0  0  0  0  0  0
   -0.6589   -3.1633   28.2685 H   0  0  0  0  0  0  0  0  0  0  0  0
   -2.0981   -2.4086   28.8827 H   0  0  0  0  0  0  0  0  0  0  0  0
    1.2994   -4.1935   31.3069 H   0  0  0  0  0  0  0  0  0  0  0  0
    1.3414   -3.6237   29.1867 H   0  0  0  0  0  0  0  0  0  0  0  0
   -1.1341   -7.0246   29.5979 H   0  0  0  0  0  0  0  0  0  0  0  0
   -1.0242   -8.9091   31.3193 H   0  0  0  0  0  0  0  0  0  0  0  0
    0.2248   -8.1973   33.3941 H   0  0  0  0  0  0  0  0  0  0  0  0
   -0.5464   -0.3859   31.0602 H   0  0  0  0  0  0  0  0  0  0  0  0
   -2.0713   -1.0337   30.5674 H   0  0  0  0  0  0  0  0  0  0  0  0
  1  2  1  0
  2  3  1  0
  2  4  1  0
  4  5  1  0
  5  6  1  0
  6  7  1  0
  7  8  1  0
  8  9  2  0
  8 10  1  0
 10 11  1  0
 10 12  1  0
 12 13  2  0
 13 14  1  0
 14 15  1  0
 15 16  2  0
  7 17  1  0
 17  4  1  0
 16 12  1  0
  1 18  1  0
  1 19  1  0
  1 20  1  0
  2 21  1  0
  3 22  1  0
  3 23  1  0
  3 24  1  0
  4 25  1  0
  5 26  1  0
  5 27  1  0
  6 28  1  0
  6 29  1  0
 10 30  1  0
 11 31  1  0
 13 32  1  0
 14 33  1  0
 15 34  1  0
 17 35  1  0
 17 36  1  0
M  END
>  <Energy>  (1012) 
136.57331746998776

>  <compound_id>  (1012) 
46379

>  <target_id>  (1012) 
1

>  <reference_id>  (1012) 
53

>  <inspiration_ids>  (1012) 
[53, 116]

>  <energy_score>  (1012) 
22.33824437261694

>  <distance_score>  (1012) 
5.545636853405416

>  <path>  (1012) 
/opt/xchem-fragalysis-2/maxwin/BulkDock/SCRATCH/511021/C46379-P53/C46379-P53.minimised.mol

>  <scratch_subdir>  (1012) 
/opt/xchem-fragalysis-2/maxwin/BulkDock/SCRATCH/511021/C46379-P53

>  <fragmenstein_runtime>  (1012) 
7.608337879180908

>  <fragmenstein_outcome>  (1012) 
too moved

>  <fragmenstein_mode>  (1012) 
expansion

>  <fragmenstein_error>  (1012) 


$$$$
C46379-P116
     RDKit          3D

 36 37  0  0  0  0  0  0  0  0999 V2000
    1.6024    1.8856   28.4431 C   0  0  0  0  0  0  0  0  0  0  0  0
    0.0919    1.6500   28.5312 C   0  0  0  0  0  0  0  0  0  0  0  0
   -0.5695    2.1206   27.2323 C   0  0  0  0  0  0  0  0  0  0  0  0
   -0.2221    0.1921   28.9644 C   0  0  0  0  0  0  0  0  0  0  0  0
   -1.6602   -0.2145   28.9174 C   0  0  0  0  0  0  0  0  0  0  0  0
   -1.5577   -1.3838   27.9512 C   0  0  0  0  0  0  0  0  0  0  0  0
   -0.3571   -2.2544   28.2568 N   0  0  0  0  0  0  0  0  0  0  0  0
   -0.6073   -3.0654   29.4350 C   0  0  0  0  0  0  0  0  0  0  0  0
   -0.3816   -2.8375   30.6089 O   0  0  0  0  0  0  0  0  0  0  0  0
   -1.3702   -4.6117   28.9640 C   0  0  0  0  0  0  0  0  0  0  0  0
   -2.3450   -3.6950   29.7530 O   0  0  0  0  0  0  0  0  0  0  0  0
   -1.3988   -6.4838   29.6312 C   0  0  0  0  0  0  0  0  0  0  0  0
   -1.1255   -7.7394   29.1056 C   0  0  0  0  0  0  0  0  0  0  0  0
   -0.6933   -8.5098   30.1683 N   0  0  0  0  0  0  0  0  0  0  0  0
   -1.1410   -7.9188   31.3049 C   0  0  0  0  0  0  0  0  0  0  0  0
   -1.6641   -6.7489   31.0272 N   0  0  0  0  0  0  0  0  0  0  0  0
    0.3572   -0.9311   28.1018 C   0  0  0  0  0  0  0  0  0  0  0  0
    2.0500    1.3213   27.6183 H   0  0  0  0  0  0  0  0  0  0  0  0
    2.0979    1.5840   29.3719 H   0  0  0  0  0  0  0  0  0  0  0  0
    1.8213    2.9464   28.2804 H   0  0  0  0  0  0  0  0  0  0  0  0
   -0.2839    2.3052   29.3269 H   0  0  0  0  0  0  0  0  0  0  0  0
   -1.6597    2.1380   27.3126 H   0  0  0  0  0  0  0  0  0  0  0  0
   -0.2993    1.4768   26.3941 H   0  0  0  0  0  0  0  0  0  0  0  0
   -0.2545    3.1405   26.9852 H   0  0  0  0  0  0  0  0  0  0  0  0
    0.1431    0.0667   29.9934 H   0  0  0  0  0  0  0  0  0  0  0  0
   -2.0029   -0.5456   29.9042 H   0  0  0  0  0  0  0  0  0  0  0  0
   -2.3461    0.5547   28.5678 H   0  0  0  0  0  0  0  0  0  0  0  0
   -1.5681   -1.0434   26.9072 H   0  0  0  0  0  0  0  0  0  0  0  0
   -2.4571   -1.9891   28.0371 H   0  0  0  0  0  0  0  0  0  0  0  0
   -1.3342   -4.6437   27.8789 H   0  0  0  0  0  0  0  0  0  0  0  0
   -2.0148   -3.8007   30.6799 H   0  0  0  0  0  0  0  0  0  0  0  0
   -0.9191   -8.0489   28.0996 H   0  0  0  0  0  0  0  0  0  0  0  0
   -0.1198   -9.3472   30.1307 H   0  0  0  0  0  0  0  0  0  0  0  0
   -1.0211   -8.3589   32.2865 H   0  0  0  0  0  0  0  0  0  0  0  0
    0.4698   -0.6646   27.0457 H   0  0  0  0  0  0  0  0  0  0  0  0
    1.3797   -1.1293   28.4514 H   0  0  0  0  0  0  0  0  0  0  0  0
  1  2  1  0
  2  3  1  0
  2  4  1  0
  4  5  1  0
  5  6  1  0
  6  7  1  0
  7  8  1  0
  8  9  2  0
  8 10  1  0
 10 11  1  0
 10 12  1  0
 12 13  2  0
 13 14  1  0
 14 15  1  0
 15 16  2  0
  7 17  1  0
 17  4  1  0
 16 12  1  0
  1 18  1  0
  1 19  1  0
  1 20  1  0
  2 21  1  0
  3 22  1  0
  3 23  1  0
  3 24  1  0
  4 25  1  0
  5 26  1  0
  5 27  1  0
  6 28  1  0
  6 29  1  0
 10 30  1  0
 11 31  1  0
 13 32  1  0
 14 33  1  0
 15 34  1  0
 17 35  1  0
 17 36  1  0
M  END
>  <Energy>  (1013) 
268.76320075148516

>  <compound_id>  (1013) 
46379

>  <target_id>  (1013) 
1

>  <reference_id>  (1013) 
116

>  <inspiration_ids>  (1013) 
[53, 116]

>  <energy_score>  (1013) 
154.52812765411

>  <distance_score>  (1013) 
4.90741607075347

>  <path>  (1013) 
/opt/xchem-fragalysis-2/maxwin/BulkDock/SCRATCH/511021/C46379-P116/C46379-P116.minimised.mol

>  <scratch_subdir>  (1013) 
/opt/xchem-fragalysis-2/maxwin/BulkDock/SCRATCH/511021/C46379-P116

>  <fragmenstein_runtime>  (1013) 
7.259921550750732

>  <fragmenstein_outcome>  (1013) 
too moved

>  <fragmenstein_mode>  (1013) 
expansion

>  <fragmenstein_error>  (1013) 


$$$$
C46381-P53
     RDKit          3D

 35 36  0  0  0  0  0  0  0  0999 V2000
    1.6098    1.5070   28.1770 C   0  0  0  0  0  0  0  0  0  0  0  0
    0.2908    0.8781   28.0892 N   0  0  0  0  0  0  0  0  0  0  0  0
   -0.6819    1.6686   28.8266 C   0  0  0  0  0  0  0  0  0  0  0  0
    0.3509   -0.5497   28.4309 C   0  0  0  0  0  0  0  0  0  0  0  0
   -0.8706   -1.3471   28.1312 C   0  0  0  0  0  0  0  0  0  0  0  0
   -0.6317   -2.5356   29.0604 C   0  0  0  0  0  0  0  0  0  0  0  0
    0.6905   -2.5805   29.8291 N   0  0  0  0  0  0  0  0  0  0  0  0
    0.6221   -3.5649   30.8837 C   0  0  0  0  0  0  0  0  0  0  0  0
    0.2822   -3.4547   32.0369 O   0  0  0  0  0  0  0  0  0  0  0  0
    1.2031   -4.9587   30.3791 C   0  0  0  0  0  0  0  0  0  0  0  0
    1.6229   -5.0127   29.0175 O   0  0  0  0  0  0  0  0  0  0  0  0
    0.3945   -6.2013   30.7636 C   0  0  0  0  0  0  0  0  0  0  0  0
   -0.2385   -6.5211   31.9495 C   0  0  0  0  0  0  0  0  0  0  0  0
   -0.6497   -7.8228   31.8342 N   0  0  0  0  0  0  0  0  0  0  0  0
   -0.2827   -8.2555   30.5951 C   0  0  0  0  0  0  0  0  0  0  0  0
    0.3348   -7.3125   29.9222 N   0  0  0  0  0  0  0  0  0  0  0  0
    0.4684   -1.0852   29.8580 C   0  0  0  0  0  0  0  0  0  0  0  0
    2.3327    0.9837   27.5411 H   0  0  0  0  0  0  0  0  0  0  0  0
    1.9941    1.5147   29.2031 H   0  0  0  0  0  0  0  0  0  0  0  0
    1.5729    2.5406   27.8144 H   0  0  0  0  0  0  0  0  0  0  0  0
   -0.4461    1.6845   29.8956 H   0  0  0  0  0  0  0  0  0  0  0  0
   -1.6976    1.2857   28.6930 H   0  0  0  0  0  0  0  0  0  0  0  0
   -0.6999    2.7032   28.4650 H   0  0  0  0  0  0  0  0  0  0  0  0
    1.1704   -0.9827   27.8371 H   0  0  0  0  0  0  0  0  0  0  0  0
   -1.8127   -0.8610   28.4070 H   0  0  0  0  0  0  0  0  0  0  0  0
   -0.9534   -1.6276   27.0888 H   0  0  0  0  0  0  0  0  0  0  0  0
   -1.4644   -2.6413   29.7758 H   0  0  0  0  0  0  0  0  0  0  0  0
   -0.6582   -3.4602   28.4719 H   0  0  0  0  0  0  0  0  0  0  0  0
    2.1414   -5.0475   30.9455 H   0  0  0  0  0  0  0  0  0  0  0  0
    0.8063   -5.1680   28.5098 H   0  0  0  0  0  0  0  0  0  0  0  0
   -0.3751   -5.9607   32.8663 H   0  0  0  0  0  0  0  0  0  0  0  0
   -1.0775   -8.3812   32.5648 H   0  0  0  0  0  0  0  0  0  0  0  0
   -0.4607   -9.2660   30.2536 H   0  0  0  0  0  0  0  0  0  0  0  0
   -0.3394   -0.8037   30.5554 H   0  0  0  0  0  0  0  0  0  0  0  0
    1.3818   -0.6869   30.3186 H   0  0  0  0  0  0  0  0  0  0  0  0
  1  2  1  0
  2  3  1  0
  2  4  1  0
  4  5  1  0
  5  6  1  0
  6  7  1  0
  7  8  1  0
  8  9  2  0
  8 10  1  0
 10 11  1  0
 10 12  1  0
 12 13  2  0
 13 14  1  0
 14 15  1  0
 15 16  2  0
  7 17  1  0
 17  4  1  0
 16 12  1  0
  1 18  1  0
  1 19  1  0
  1 20  1  0
  3 21  1  0
  3 22  1  0
  3 23  1  0
  4 24  1  0
  5 25  1  0
  5 26  1  0
  6 27  1  0
  6 28  1  0
 10 29  1  0
 11 30  1  0
 13 31  1  0
 14 32  1  0
 15 33  1  0
 17 34  1  0
 17 35  1  0
M  END
>  <Energy>  (1014) 
154.53632265644288

>  <compound_id>  (1014) 
46381

>  <target_id>  (1014) 
1

>  <reference_id>  (1014) 
53

>  <inspiration_ids>  (1014) 
[53, 116]

>  <energy_score>  (1014) 
26.176548503966956

>  <distance_score>  (1014) 
5.424635384510082

>  <path>  (1014) 
/opt/xchem-fragalysis-2/maxwin/BulkDock/SCRATCH/511021/C46381-P53/C46381-P53.minimised.mol

>  <scratch_subdir>  (1014) 
/opt/xchem-fragalysis-2/maxwin/BulkDock/SCRATCH/511021/C46381-P53

>  <fragmenstein_runtime>  (1014) 
7.788737773895264

>  <fragmenstein_outcome>  (1014) 
too moved

>  <fragmenstein_mode>  (1014) 
expansion

>  <fragmenstein_error>  (1014) 


$$$$
C46381-P116
     RDKit          3D

 35 36  0  0  0  0  0  0  0  0999 V2000
    0.5709    1.9961   28.9669 C   0  0  0  0  0  0  0  0  0  0  0  0
   -0.4972    1.0028   29.1461 N   0  0  0  0  0  0  0  0  0  0  0  0
   -1.0593    0.6729   27.8314 C   0  0  0  0  0  0  0  0  0  0  0  0
   -0.0240   -0.1891   29.8791 C   0  0  0  0  0  0  0  0  0  0  0  0
    0.2210    0.0937   31.3341 C   0  0  0  0  0  0  0  0  0  0  0  0
   -0.7299   -0.8968   31.9787 C   0  0  0  0  0  0  0  0  0  0  0  0
   -0.7189   -2.2215   31.2742 N   0  0  0  0  0  0  0  0  0  0  0  0
   -1.5466   -3.1729   31.9803 C   0  0  0  0  0  0  0  0  0  0  0  0
   -2.7177   -3.4362   31.8536 O   0  0  0  0  0  0  0  0  0  0  0  0
   -0.7244   -3.8820   33.1378 C   0  0  0  0  0  0  0  0  0  0  0  0
   -1.2694   -3.5159   34.4093 O   0  0  0  0  0  0  0  0  0  0  0  0
   -0.6126   -5.4003   33.0111 C   0  0  0  0  0  0  0  0  0  0  0  0
    0.4701   -6.2151   33.2955 C   0  0  0  0  0  0  0  0  0  0  0  0
    0.1253   -7.4595   32.8372 N   0  0  0  0  0  0  0  0  0  0  0  0
   -1.1678   -7.4147   32.4379 C   0  0  0  0  0  0  0  0  0  0  0  0
   -1.6396   -6.1994   32.5583 N   0  0  0  0  0  0  0  0  0  0  0  0
   -1.0262   -1.3367   30.0828 C   0  0  0  0  0  0  0  0  0  0  0  0
    0.9740    2.3252   29.9301 H   0  0  0  0  0  0  0  0  0  0  0  0
    0.1811    2.8945   28.4749 H   0  0  0  0  0  0  0  0  0  0  0  0
    1.3980    1.6028   28.3648 H   0  0  0  0  0  0  0  0  0  0  0  0
   -1.9319    0.0192   27.9276 H   0  0  0  0  0  0  0  0  0  0  0  0
   -0.3243    0.1757   27.1895 H   0  0  0  0  0  0  0  0  0  0  0  0
   -1.4116    1.5768   27.3214 H   0  0  0  0  0  0  0  0  0  0  0  0
    0.8872   -0.5882   29.4132 H   0  0  0  0  0  0  0  0  0  0  0  0
   -0.0032    1.1133   31.6630 H   0  0  0  0  0  0  0  0  0  0  0  0
    1.2623   -0.1253   31.5974 H   0  0  0  0  0  0  0  0  0  0  0  0
   -0.3880   -1.0783   33.0069 H   0  0  0  0  0  0  0  0  0  0  0  0
   -1.7559   -0.5085   32.1072 H   0  0  0  0  0  0  0  0  0  0  0  0
    0.2884   -3.4675   33.1346 H   0  0  0  0  0  0  0  0  0  0  0  0
   -2.1813   -3.8940   34.3785 H   0  0  0  0  0  0  0  0  0  0  0  0
    1.4381   -6.0043   33.7199 H   0  0  0  0  0  0  0  0  0  0  0  0
    0.6971   -8.2992   32.8305 H   0  0  0  0  0  0  0  0  0  0  0  0
   -1.6993   -8.2830   32.0792 H   0  0  0  0  0  0  0  0  0  0  0  0
   -0.9839   -2.0088   29.2145 H   0  0  0  0  0  0  0  0  0  0  0  0
   -2.0807   -1.0130   30.1115 H   0  0  0  0  0  0  0  0  0  0  0  0
  1  2  1  0
  2  3  1  0
  2  4  1  0
  4  5  1  0
  5  6  1  0
  6  7  1  0
  7  8  1  0
  8  9  2  0
  8 10  1  0
 10 11  1  0
 10 12  1  0
 12 13  2  0
 13 14  1  0
 14 15  1  0
 15 16  2  0
  7 17  1  0
 17  4  1  0
 16 12  1  0
  1 18  1  0
  1 19  1  0
  1 20  1  0
  3 21  1  0
  3 22  1  0
  3 23  1  0
  4 24  1  0
  5 25  1  0
  5 26  1  0
  6 27  1  0
  6 28  1  0
 10 29  1  0
 11 30  1  0
 13 31  1  0
 14 32  1  0
 15 33  1  0
 17 34  1  0
 17 35  1  0
M  END
>  <Energy>  (1015) 
147.33072734607416

>  <compound_id>  (1015) 
46381

>  <target_id>  (1015) 
1

>  <reference_id>  (1015) 
116

>  <inspiration_ids>  (1015) 
[53, 116]

>  <energy_score>  (1015) 
18.970953193594084

>  <distance_score>  (1015) 
6.255514399791639

>  <path>  (1015) 
/opt/xchem-fragalysis-2/maxwin/BulkDock/SCRATCH/511021/C46381-P116/C46381-P116.minimised.mol

>  <scratch_subdir>  (1015) 
/opt/xchem-fragalysis-2/maxwin/BulkDock/SCRATCH/511021/C46381-P116

>  <fragmenstein_runtime>  (1015) 
6.378605365753174

>  <fragmenstein_outcome>  (1015) 
too moved

>  <fragmenstein_mode>  (1015) 
expansion

>  <fragmenstein_error>  (1015) 


$$$$
C22053-P53
     RDKit          3D

 40 41  0  0  0  0  0  0  0  0999 V2000
    3.8894   -0.4110   27.1140 C   0  0  0  0  0  0  0  0  0  0  0  0
    3.1733   -0.0148   28.3900 C   0  0  0  0  0  0  0  0  0  0  0  0
    3.6335   -0.3297   29.4478 O   0  0  0  0  0  0  0  0  0  0  0  0
    1.9643    0.6843   28.0656 N   0  0  0  0  0  0  0  0  0  0  0  0
    0.9774    1.3069   28.9104 C   0  0  0  0  0  0  0  0  0  0  0  0
   -0.4496    1.1481   28.3925 C   0  0  0  0  0  0  0  0  0  0  0  0
   -1.1876   -0.1647   28.6292 C   0  0  0  0  0  0  0  0  0  0  0  0
   -1.1036   -0.8594   29.8721 C   0  0  0  0  0  0  0  0  0  0  0  0
   -0.1714   -1.8778   28.9960 C   0  0  0  0  0  0  0  0  0  0  0  0
   -0.2291   -2.7624   29.8823 N   0  0  0  0  0  0  0  0  0  0  0  0
    0.5392   -3.9962   30.0298 C   0  0  0  0  0  0  0  0  0  0  0  0
    1.3235   -4.5272   29.2899 O   0  0  0  0  0  0  0  0  0  0  0  0
    0.2169   -4.6592   31.4279 C   0  0  0  0  0  0  0  0  0  0  0  0
   -0.7437   -4.0156   32.2648 O   0  0  0  0  0  0  0  0  0  0  0  0
   -0.1169   -6.1435   31.2757 C   0  0  0  0  0  0  0  0  0  0  0  0
    0.4952   -7.1259   30.5280 C   0  0  0  0  0  0  0  0  0  0  0  0
   -0.1395   -8.2968   30.8236 N   0  0  0  0  0  0  0  0  0  0  0  0
   -1.0813   -8.0092   31.7646 C   0  0  0  0  0  0  0  0  0  0  0  0
   -1.1192   -6.7240   32.0324 N   0  0  0  0  0  0  0  0  0  0  0  0
   -0.4613   -1.5213   28.3061 C   0  0  0  0  0  0  0  0  0  0  0  0
    3.8103    0.3688   26.3512 H   0  0  0  0  0  0  0  0  0  0  0  0
    3.4635   -1.3444   26.7393 H   0  0  0  0  0  0  0  0  0  0  0  0
    4.9519   -0.5611   27.3281 H   0  0  0  0  0  0  0  0  0  0  0  0
    1.8537    0.7030   27.0577 H   0  0  0  0  0  0  0  0  0  0  0  0
    1.1000    0.9425   29.9340 H   0  0  0  0  0  0  0  0  0  0  0  0
    1.2323    2.3728   28.9194 H   0  0  0  0  0  0  0  0  0  0  0  0
   -1.0503    1.9368   28.8604 H   0  0  0  0  0  0  0  0  0  0  0  0
   -0.4607    1.3539   27.3144 H   0  0  0  0  0  0  0  0  0  0  0  0
   -2.2011   -0.1283   28.2149 H   0  0  0  0  0  0  0  0  0  0  0  0
   -0.5709   -0.3679   30.6941 H   0  0  0  0  0  0  0  0  0  0  0  0
   -2.0536   -1.2909   30.2215 H   0  0  0  0  0  0  0  0  0  0  0  0
   -0.1385   -3.0972   28.2819 H   0  0  0  0  0  0  0  0  0  0  0  0
    1.0024   -1.6067   29.2924 H   0  0  0  0  0  0  0  0  0  0  0  0
    1.1630   -4.6063   31.9830 H   0  0  0  0  0  0  0  0  0  0  0  0
   -1.1722   -4.7378   32.7642 H   0  0  0  0  0  0  0  0  0  0  0  0
    1.3254   -7.0608   29.8453 H   0  0  0  0  0  0  0  0  0  0  0  0
    0.1153   -9.2226   30.4973 H   0  0  0  0  0  0  0  0  0  0  0  0
   -1.7046   -8.7593   32.2291 H   0  0  0  0  0  0  0  0  0  0  0  0
   -1.3463   -2.0129   27.6079 H   0  0  0  0  0  0  0  0  0  0  0  0
    0.3971   -1.4107   27.4053 H   0  0  0  0  0  0  0  0  0  0  0  0
  1  2  1  0
  2  3  2  0
  2  4  1  0
  4  5  1  0
  5  6  1  0
  6  7  1  0
  7  8  1  0
  8  9  1  0
  9 10  1  0
 10 11  1  0
 11 12  2  0
 11 13  1  0
 13 14  1  0
 13 15  1  0
 15 16  2  0
 16 17  1  0
 17 18  1  0
 18 19  2  0
 10 20  1  0
 20  7  1  0
 19 15  1  0
  1 21  1  0
  1 22  1  0
  1 23  1  0
  4 24  1  0
  5 25  1  0
  5 26  1  0
  6 27  1  0
  6 28  1  0
  7 29  1  0
  8 30  1  0
  8 31  1  0
  9 32  1  0
  9 33  1  0
 13 34  1  0
 14 35  1  0
 16 36  1  0
 17 37  1  0
 18 38  1  0
 20 39  1  0
 20 40  1  0
M  END
>  <Energy>  (1016) 
884.90116265980407

>  <compound_id>  (1016) 
22053

>  <target_id>  (1016) 
1

>  <reference_id>  (1016) 
53

>  <inspiration_ids>  (1016) 
[53, 116]

>  <energy_score>  (1016) 
812.9019358729008

>  <distance_score>  (1016) 
6.219709119104981

>  <path>  (1016) 
/opt/xchem-fragalysis-2/maxwin/BulkDock/SCRATCH/511021/C22053-P53/C22053-P53.minimised.mol

>  <scratch_subdir>  (1016) 
/opt/xchem-fragalysis-2/maxwin/BulkDock/SCRATCH/511021/C22053-P53

>  <fragmenstein_runtime>  (1016) 
13.855803489685059

>  <fragmenstein_outcome>  (1016) 
too moved

>  <fragmenstein_mode>  (1016) 
expansion

>  <fragmenstein_error>  (1016) 


$$$$
C22053-P116
     RDKit          3D

 40 41  0  0  0  0  0  0  0  0999 V2000
   -1.3005    4.2165   22.0198 C   0  0  0  0  0  0  0  0  0  0  0  0
   -1.4427    3.4637   23.3274 C   0  0  0  0  0  0  0  0  0  0  0  0
   -1.5829    2.2741   23.3193 O   0  0  0  0  0  0  0  0  0  0  0  0
   -1.3552    4.3900   24.4198 N   0  0  0  0  0  0  0  0  0  0  0  0
   -1.5032    4.1936   25.8392 C   0  0  0  0  0  0  0  0  0  0  0  0
   -0.4462    3.2547   26.4315 C   0  0  0  0  0  0  0  0  0  0  0  0
   -1.0512    2.4218   27.5502 C   0  0  0  0  0  0  0  0  0  0  0  0
   -1.9604    1.4067   27.0882 C   0  0  0  0  0  0  0  0  0  0  0  0
   -0.7446    0.5535   27.8225 C   0  0  0  0  0  0  0  0  0  0  0  0
   -0.9203   -0.7093   27.9470 N   0  0  0  0  0  0  0  0  0  0  0  0
    0.0154   -2.0167   27.7791 C   0  0  0  0  0  0  0  0  0  0  0  0
    1.1523   -2.1385   27.5929 O   0  0  0  0  0  0  0  0  0  0  0  0
   -1.0909   -3.1867   27.8697 C   0  0  0  0  0  0  0  0  0  0  0  0
   -1.4285   -3.1940   29.2893 O   0  0  0  0  0  0  0  0  0  0  0  0
   -1.1342   -4.8846   27.2875 C   0  0  0  0  0  0  0  0  0  0  0  0
   -1.1710   -5.7576   26.1145 C   0  0  0  0  0  0  0  0  0  0  0  0
   -1.6226   -7.0061   26.4702 N   0  0  0  0  0  0  0  0  0  0  0  0
   -1.8240   -6.9429   27.7878 C   0  0  0  0  0  0  0  0  0  0  0  0
   -1.6328   -5.7309   28.2482 N   0  0  0  0  0  0  0  0  0  0  0  0
   -0.2049    1.1301   28.0583 C   0  0  0  0  0  0  0  0  0  0  0  0
   -1.6853    3.6007   21.2019 H   0  0  0  0  0  0  0  0  0  0  0  0
   -0.2450    4.4372   21.8401 H   0  0  0  0  0  0  0  0  0  0  0  0
   -1.8792    5.1447   22.0370 H   0  0  0  0  0  0  0  0  0  0  0  0
   -1.1543    5.3138   24.0544 H   0  0  0  0  0  0  0  0  0  0  0  0
   -1.4523    5.1748   26.3213 H   0  0  0  0  0  0  0  0  0  0  0  0
   -2.5139    3.7974   25.9815 H   0  0  0  0  0  0  0  0  0  0  0  0
    0.3948    3.8418   26.8186 H   0  0  0  0  0  0  0  0  0  0  0  0
   -0.0241    2.6012   25.6589 H   0  0  0  0  0  0  0  0  0  0  0  0
   -1.4224    3.0237   28.3858 H   0  0  0  0  0  0  0  0  0  0  0  0
   -2.9246    1.3946   27.5916 H   0  0  0  0  0  0  0  0  0  0  0  0
   -2.0523    1.2398   26.0108 H   0  0  0  0  0  0  0  0  0  0  0  0
   -1.6488    0.4039   28.6978 H   0  0  0  0  0  0  0  0  0  0  0  0
   -0.5689    0.1369   26.6680 H   0  0  0  0  0  0  0  0  0  0  0  0
   -1.9071   -2.6687   27.3547 H   0  0  0  0  0  0  0  0  0  0  0  0
   -1.2658   -4.1235   29.5537 H   0  0  0  0  0  0  0  0  0  0  0  0
   -0.9713   -5.6589   25.0545 H   0  0  0  0  0  0  0  0  0  0  0  0
   -1.8036   -7.7772   25.8363 H   0  0  0  0  0  0  0  0  0  0  0  0
   -2.0297   -7.7067   28.4974 H   0  0  0  0  0  0  0  0  0  0  0  0
    0.1273    1.3277   29.2098 H   0  0  0  0  0  0  0  0  0  0  0  0
    0.9345    1.1663   27.6204 H   0  0  0  0  0  0  0  0  0  0  0  0
  1  2  1  0
  2  3  2  0
  2  4  1  0
  4  5  1  0
  5  6  1  0
  6  7  1  0
  7  8  1  0
  8  9  1  0
  9 10  1  0
 10 11  1  0
 11 12  2  0
 11 13  1  0
 13 14  1  0
 13 15  1  0
 15 16  2  0
 16 17  1  0
 17 18  1  0
 18 19  2  0
 10 20  1  0
 20  7  1  0
 19 15  1  0
  1 21  1  0
  1 22  1  0
  1 23  1  0
  4 24  1  0
  5 25  1  0
  5 26  1  0
  6 27  1  0
  6 28  1  0
  7 29  1  0
  8 30  1  0
  8 31  1  0
  9 32  1  0
  9 33  1  0
 13 34  1  0
 14 35  1  0
 16 36  1  0
 17 37  1  0
 18 38  1  0
 20 39  1  0
 20 40  1  0
M  END
>  <Energy>  (1017) 
877.01715840565237

>  <compound_id>  (1017) 
22053

>  <target_id>  (1017) 
1

>  <reference_id>  (1017) 
116

>  <inspiration_ids>  (1017) 
[53, 116]

>  <energy_score>  (1017) 
805.0179316187548

>  <distance_score>  (1017) 
5.788130821278594

>  <path>  (1017) 
/opt/xchem-fragalysis-2/maxwin/BulkDock/SCRATCH/511021/C22053-P116/C22053-P116.minimised.mol

>  <scratch_subdir>  (1017) 
/opt/xchem-fragalysis-2/maxwin/BulkDock/SCRATCH/511021/C22053-P116

>  <fragmenstein_runtime>  (1017) 
17.826220750808716

>  <fragmenstein_outcome>  (1017) 
too moved

>  <fragmenstein_mode>  (1017) 
expansion

>  <fragmenstein_error>  (1017) 


$$$$
C18092-P53
     RDKit          3D

 37 39  0  0  0  0  0  0  0  0999 V2000
    1.3564   -2.4153   31.3933 O   0  0  0  0  0  0  0  0  0  0  0  0
    0.5398   -2.5724   30.5247 C   0  0  0  0  0  0  0  0  0  0  0  0
   -0.3049   -3.8799   30.3697 C   0  0  0  0  0  0  0  0  0  0  0  0
   -0.3226   -4.2225   28.9877 O   0  0  0  0  0  0  0  0  0  0  0  0
    0.0071   -5.1383   31.1863 C   0  0  0  0  0  0  0  0  0  0  0  0
   -0.3362   -6.4180   30.6982 C   0  0  0  0  0  0  0  0  0  0  0  0
   -0.2498   -7.5748   31.4761 C   0  0  0  0  0  0  0  0  0  0  0  0
    0.1700   -7.4682   32.7893 C   0  0  0  0  0  0  0  0  0  0  0  0
    0.5404   -6.2286   33.2967 C   0  0  0  0  0  0  0  0  0  0  0  0
    0.4538   -5.0765   32.5067 C   0  0  0  0  0  0  0  0  0  0  0  0
    0.1266   -1.6863   29.4446 N   0  0  0  0  0  0  0  0  0  0  0  0
   -1.0297   -0.8259   29.8858 C   0  0  0  0  0  0  0  0  0  0  0  0
   -1.5814   -0.0240   28.7254 C   0  0  0  0  0  0  0  0  0  0  0  0
   -0.2983    0.3902   28.0781 C   0  0  0  0  0  0  0  0  0  0  0  0
   -0.0965    1.8667   28.0398 C   0  0  0  0  0  0  0  0  0  0  0  0
    0.8752    2.5465   28.6131 N   0  0  0  0  0  0  0  0  0  0  0  0
    0.6464    3.8629   28.3022 C   0  0  0  0  0  0  0  0  0  0  0  0
   -0.4780    3.9886   27.5261 C   0  0  0  0  0  0  0  0  0  0  0  0
   -0.9437    2.7153   27.3617 N   0  0  0  0  0  0  0  0  0  0  0  0
    0.6685   -0.3424   29.0091 C   0  0  0  0  0  0  0  0  0  0  0  0
   -1.3288   -3.6080   30.6537 H   0  0  0  0  0  0  0  0  0  0  0  0
   -0.5117   -3.3939   28.5027 H   0  0  0  0  0  0  0  0  0  0  0  0
   -0.7351   -6.5175   29.6973 H   0  0  0  0  0  0  0  0  0  0  0  0
   -0.5369   -8.5403   31.0719 H   0  0  0  0  0  0  0  0  0  0  0  0
    0.1890   -8.3350   33.4381 H   0  0  0  0  0  0  0  0  0  0  0  0
    0.8704   -6.1458   34.3303 H   0  0  0  0  0  0  0  0  0  0  0  0
    0.7154   -4.1244   32.9650 H   0  0  0  0  0  0  0  0  0  0  0  0
   -0.7842   -0.2232   30.7778 H   0  0  0  0  0  0  0  0  0  0  0  0
   -1.8226   -1.4991   30.2365 H   0  0  0  0  0  0  0  0  0  0  0  0
   -2.2300    0.7877   29.0629 H   0  0  0  0  0  0  0  0  0  0  0  0
   -2.1584   -0.6708   28.0538 H   0  0  0  0  0  0  0  0  0  0  0  0
   -0.2363   -0.0165   27.0629 H   0  0  0  0  0  0  0  0  0  0  0  0
    1.2967    4.6502   28.6605 H   0  0  0  0  0  0  0  0  0  0  0  0
   -0.9829    4.8465   27.1036 H   0  0  0  0  0  0  0  0  0  0  0  0
   -1.7785    2.4508   26.8547 H   0  0  0  0  0  0  0  0  0  0  0  0
    1.5877   -0.5764   28.4541 H   0  0  0  0  0  0  0  0  0  0  0  0
    1.0310    0.2330   29.8783 H   0  0  0  0  0  0  0  0  0  0  0  0
  1  2  2  0
  2  3  1  0
  3  4  1  0
  3  5  1  0
  5  6  2  0
  6  7  1  0
  7  8  2  0
  8  9  1  0
  9 10  2  0
  2 11  1  0
 11 12  1  0
 12 13  1  0
 13 14  1  0
 14 15  1  0
 15 16  2  0
 16 17  1  0
 17 18  2  0
 18 19  1  0
 14 20  1  0
 10  5  1  0
 20 11  1  0
 19 15  1  0
  3 21  1  0
  4 22  1  0
  6 23  1  0
  7 24  1  0
  8 25  1  0
  9 26  1  0
 10 27  1  0
 12 28  1  0
 12 29  1  0
 13 30  1  0
 13 31  1  0
 14 32  1  0
 17 33  1  0
 18 34  1  0
 19 35  1  0
 20 36  1  0
 20 37  1  0
M  END
>  <Energy>  (1018) 
132.3193444342385

>  <compound_id>  (1018) 
18092

>  <target_id>  (1018) 
1

>  <reference_id>  (1018) 
53

>  <inspiration_ids>  (1018) 
[53, 116]

>  <energy_score>  (1018) 
36.5812324690346

>  <distance_score>  (1018) 
5.665060612910929

>  <path>  (1018) 
/opt/xchem-fragalysis-2/maxwin/BulkDock/SCRATCH/511021/C18092-P53/C18092-P53.minimised.mol

>  <scratch_subdir>  (1018) 
/opt/xchem-fragalysis-2/maxwin/BulkDock/SCRATCH/511021/C18092-P53

>  <fragmenstein_runtime>  (1018) 
16.919493198394775

>  <fragmenstein_outcome>  (1018) 
too moved

>  <fragmenstein_mode>  (1018) 
expansion

>  <fragmenstein_error>  (1018) 


$$$$
C18092-P116
     RDKit          3D

 37 39  0  0  0  0  0  0  0  0999 V2000
   -2.2031   -3.4158   34.5884 O   0  0  0  0  0  0  0  0  0  0  0  0
   -1.3497   -3.5491   33.7419 C   0  0  0  0  0  0  0  0  0  0  0  0
   -0.4141   -4.8449   33.8550 C   0  0  0  0  0  0  0  0  0  0  0  0
    0.9155   -4.7506   33.3496 O   0  0  0  0  0  0  0  0  0  0  0  0
   -1.0582   -6.2048   33.5220 C   0  0  0  0  0  0  0  0  0  0  0  0
   -2.1161   -6.6938   34.3042 C   0  0  0  0  0  0  0  0  0  0  0  0
   -2.6638   -7.9629   34.0606 C   0  0  0  0  0  0  0  0  0  0  0  0
   -2.1750   -8.7603   33.0278 C   0  0  0  0  0  0  0  0  0  0  0  0
   -1.1111   -8.3137   32.2619 C   0  0  0  0  0  0  0  0  0  0  0  0
   -0.5513   -7.0613   32.5253 C   0  0  0  0  0  0  0  0  0  0  0  0
   -0.9522   -2.6713   32.6674 N   0  0  0  0  0  0  0  0  0  0  0  0
   -1.7305   -2.9810   31.4340 C   0  0  0  0  0  0  0  0  0  0  0  0
   -1.2576   -2.1908   30.2414 C   0  0  0  0  0  0  0  0  0  0  0  0
   -1.4702   -0.8467   30.8319 C   0  0  0  0  0  0  0  0  0  0  0  0
   -0.5375    0.2065   30.3347 C   0  0  0  0  0  0  0  0  0  0  0  0
    0.1142    1.1035   31.0469 N   0  0  0  0  0  0  0  0  0  0  0  0
    0.7579    1.9128   30.1422 C   0  0  0  0  0  0  0  0  0  0  0  0
    0.4846    1.5142   28.8583 C   0  0  0  0  0  0  0  0  0  0  0  0
   -0.3514    0.4415   28.9871 N   0  0  0  0  0  0  0  0  0  0  0  0
   -1.4013   -1.2426   32.3194 C   0  0  0  0  0  0  0  0  0  0  0  0
   -0.2375   -4.8936   34.9414 H   0  0  0  0  0  0  0  0  0  0  0  0
    1.3363   -5.5957   33.5941 H   0  0  0  0  0  0  0  0  0  0  0  0
   -2.5179   -6.0941   35.1202 H   0  0  0  0  0  0  0  0  0  0  0  0
   -3.4769   -8.3289   34.6836 H   0  0  0  0  0  0  0  0  0  0  0  0
   -2.5867   -9.7465   32.8575 H   0  0  0  0  0  0  0  0  0  0  0  0
   -0.6603   -8.9522   31.5044 H   0  0  0  0  0  0  0  0  0  0  0  0
    0.3304   -6.7924   31.9523 H   0  0  0  0  0  0  0  0  0  0  0  0
   -1.6265   -4.0471   31.2545 H   0  0  0  0  0  0  0  0  0  0  0  0
   -2.8173   -2.8774   31.6149 H   0  0  0  0  0  0  0  0  0  0  0  0
   -0.2056   -2.3885   30.0151 H   0  0  0  0  0  0  0  0  0  0  0  0
   -1.8535   -2.3743   29.3438 H   0  0  0  0  0  0  0  0  0  0  0  0
   -2.4892   -0.4923   30.6261 H   0  0  0  0  0  0  0  0  0  0  0  0
    1.3739    2.7423   30.4655 H   0  0  0  0  0  0  0  0  0  0  0  0
    0.7890    1.8980   27.8952 H   0  0  0  0  0  0  0  0  0  0  0  0
   -0.7657   -0.0868   28.2289 H   0  0  0  0  0  0  0  0  0  0  0  0
   -2.3715   -1.0699   32.8148 H   0  0  0  0  0  0  0  0  0  0  0  0
   -0.7010   -0.6006   32.8690 H   0  0  0  0  0  0  0  0  0  0  0  0
  1  2  2  0
  2  3  1  0
  3  4  1  0
  3  5  1  0
  5  6  2  0
  6  7  1  0
  7  8  2  0
  8  9  1  0
  9 10  2  0
  2 11  1  0
 11 12  1  0
 12 13  1  0
 13 14  1  0
 14 15  1  0
 15 16  2  0
 16 17  1  0
 17 18  2  0
 18 19  1  0
 14 20  1  0
 10  5  1  0
 20 11  1  0
 19 15  1  0
  3 21  1  0
  4 22  1  0
  6 23  1  0
  7 24  1  0
  8 25  1  0
  9 26  1  0
 10 27  1  0
 12 28  1  0
 12 29  1  0
 13 30  1  0
 13 31  1  0
 14 32  1  0
 17 33  1  0
 18 34  1  0
 19 35  1  0
 20 36  1  0
 20 37  1  0
M  END
>  <Energy>  (1019) 
144.08880683814672

>  <compound_id>  (1019) 
18092

>  <target_id>  (1019) 
1

>  <reference_id>  (1019) 
116

>  <inspiration_ids>  (1019) 
[53, 116]

>  <energy_score>  (1019) 
48.35069487293697

>  <distance_score>  (1019) 
6.537051090185041

>  <path>  (1019) 
/opt/xchem-fragalysis-2/maxwin/BulkDock/SCRATCH/511021/C18092-P116/C18092-P116.minimised.mol

>  <scratch_subdir>  (1019) 
/opt/xchem-fragalysis-2/maxwin/BulkDock/SCRATCH/511021/C18092-P116

>  <fragmenstein_runtime>  (1019) 
14.164471864700317

>  <fragmenstein_outcome>  (1019) 
too moved

>  <fragmenstein_mode>  (1019) 
expansion

>  <fragmenstein_error>  (1019) 


$$$$
C18093-P53
     RDKit          3D

 37 39  0  0  0  0  0  0  0  0999 V2000
    1.4074   -3.6039   28.5160 O   0  0  0  0  0  0  0  0  0  0  0  0
    1.1788   -3.1884   29.6255 C   0  0  0  0  0  0  0  0  0  0  0  0
    1.7480   -3.9629   30.8816 C   0  0  0  0  0  0  0  0  0  0  0  0
    3.1235   -4.3021   30.6842 O   0  0  0  0  0  0  0  0  0  0  0  0
    1.0321   -5.2769   31.2146 C   0  0  0  0  0  0  0  0  0  0  0  0
    0.1077   -5.8698   30.3591 C   0  0  0  0  0  0  0  0  0  0  0  0
   -0.4992   -7.0944   30.6591 C   0  0  0  0  0  0  0  0  0  0  0  0
   -0.2391   -7.7300   31.8605 C   0  0  0  0  0  0  0  0  0  0  0  0
    0.6591   -7.1479   32.7462 C   0  0  0  0  0  0  0  0  0  0  0  0
    1.3045   -5.9484   32.4162 C   0  0  0  0  0  0  0  0  0  0  0  0
    0.4211   -2.0495   30.0556 N   0  0  0  0  0  0  0  0  0  0  0  0
   -1.0124   -2.4347   30.2892 C   0  0  0  0  0  0  0  0  0  0  0  0
   -1.7681   -1.2991   30.9318 C   0  0  0  0  0  0  0  0  0  0  0  0
   -1.3062   -0.1929   30.0598 C   0  0  0  0  0  0  0  0  0  0  0  0
   -0.2450   -0.9348   29.2534 C   0  0  0  0  0  0  0  0  0  0  0  0
    0.8065    0.0725   28.8413 C   0  0  0  0  0  0  0  0  0  0  0  0
    1.6114    0.7718   29.6209 N   0  0  0  0  0  0  0  0  0  0  0  0
    2.2734    1.6400   28.7903 C   0  0  0  0  0  0  0  0  0  0  0  0
    1.8788    1.4622   27.4877 C   0  0  0  0  0  0  0  0  0  0  0  0
    0.9471    0.4644   27.5312 N   0  0  0  0  0  0  0  0  0  0  0  0
    1.6923   -3.3007   31.7542 H   0  0  0  0  0  0  0  0  0  0  0  0
    3.5283   -3.5241   30.2592 H   0  0  0  0  0  0  0  0  0  0  0  0
   -0.1565   -5.3750   29.4320 H   0  0  0  0  0  0  0  0  0  0  0  0
   -1.1837   -7.5273   29.9428 H   0  0  0  0  0  0  0  0  0  0  0  0
   -0.7319   -8.6629   32.1141 H   0  0  0  0  0  0  0  0  0  0  0  0
    0.8631   -7.6271   33.7010 H   0  0  0  0  0  0  0  0  0  0  0  0
    2.0254   -5.5259   33.1152 H   0  0  0  0  0  0  0  0  0  0  0  0
   -1.4906   -2.8613   29.3913 H   0  0  0  0  0  0  0  0  0  0  0  0
   -1.0086   -3.2653   31.0058 H   0  0  0  0  0  0  0  0  0  0  0  0
   -2.8461   -1.4464   30.9461 H   0  0  0  0  0  0  0  0  0  0  0  0
   -1.4341   -1.1441   31.9644 H   0  0  0  0  0  0  0  0  0  0  0  0
   -2.0940    0.2050   29.4121 H   0  0  0  0  0  0  0  0  0  0  0  0
   -0.9083    0.6295   30.6637 H   0  0  0  0  0  0  0  0  0  0  0  0
   -0.6454   -1.3524   28.3115 H   0  0  0  0  0  0  0  0  0  0  0  0
    2.9979    2.3457   29.1756 H   0  0  0  0  0  0  0  0  0  0  0  0
    2.1664    1.9487   26.5671 H   0  0  0  0  0  0  0  0  0  0  0  0
    0.4350    0.0737   26.7508 H   0  0  0  0  0  0  0  0  0  0  0  0
  1  2  2  0
  2  3  1  0
  3  4  1  0
  3  5  1  0
  5  6  2  0
  6  7  1  0
  7  8  2  0
  8  9  1  0
  9 10  2  0
  2 11  1  0
 11 12  1  0
 12 13  1  0
 13 14  1  0
 14 15  1  0
 15 16  1  0
 16 17  2  0
 17 18  1  0
 18 19  2  0
 19 20  1  0
 10  5  1  0
 15 11  1  0
 20 16  1  0
  3 21  1  0
  4 22  1  0
  6 23  1  0
  7 24  1  0
  8 25  1  0
  9 26  1  0
 10 27  1  0
 12 28  1  0
 12 29  1  0
 13 30  1  0
 13 31  1  0
 14 32  1  0
 14 33  1  0
 15 34  1  0
 18 35  1  0
 19 36  1  0
 20 37  1  0
M  END
>  <Energy>  (1020) 
131.01122471360318

>  <compound_id>  (1020) 
18093

>  <target_id>  (1020) 
1

>  <reference_id>  (1020) 
53

>  <inspiration_ids>  (1020) 
[53, 116]

>  <energy_score>  (1020) 
44.99683414560491

>  <distance_score>  (1020) 
6.160575495504362

>  <path>  (1020) 
/opt/xchem-fragalysis-2/maxwin/BulkDock/SCRATCH/511021/C18093-P53/C18093-P53.minimised.mol

>  <scratch_subdir>  (1020) 
/opt/xchem-fragalysis-2/maxwin/BulkDock/SCRATCH/511021/C18093-P53

>  <fragmenstein_runtime>  (1020) 
20.667632818222046

>  <fragmenstein_outcome>  (1020) 
too moved

>  <fragmenstein_mode>  (1020) 
expansion

>  <fragmenstein_error>  (1020) 


$$$$
C18093-P116
     RDKit          3D

 37 39  0  0  0  0  0  0  0  0999 V2000
   -2.2467   -3.7002   30.5655 O   0  0  0  0  0  0  0  0  0  0  0  0
   -1.6306   -3.6949   29.5206 C   0  0  0  0  0  0  0  0  0  0  0  0
   -1.4823   -5.3316   28.5513 C   0  0  0  0  0  0  0  0  0  0  0  0
   -1.6971   -5.9953   27.2828 O   0  0  0  0  0  0  0  0  0  0  0  0
   -1.3886   -6.8980   29.6201 C   0  0  0  0  0  0  0  0  0  0  0  0
   -0.9349   -8.1115   29.0855 C   0  0  0  0  0  0  0  0  0  0  0  0
   -0.6093   -9.2587   29.8551 C   0  0  0  0  0  0  0  0  0  0  0  0
   -0.7969   -9.2571   31.2251 C   0  0  0  0  0  0  0  0  0  0  0  0
   -1.2697   -8.1030   31.8188 C   0  0  0  0  0  0  0  0  0  0  0  0
   -1.5360   -6.9595   31.0404 C   0  0  0  0  0  0  0  0  0  0  0  0
   -0.8574   -2.6177   28.8785 N   0  0  0  0  0  0  0  0  0  0  0  0
   -1.7507   -1.8194   27.9463 C   0  0  0  0  0  0  0  0  0  0  0  0
   -1.6729   -0.3271   27.7475 C   0  0  0  0  0  0  0  0  0  0  0  0
   -1.4393   -0.0430   29.1669 C   0  0  0  0  0  0  0  0  0  0  0  0
   -0.4950   -1.2130   29.3803 C   0  0  0  0  0  0  0  0  0  0  0  0
    0.9197   -0.8082   29.0065 C   0  0  0  0  0  0  0  0  0  0  0  0
    1.7028    0.0135   29.6827 N   0  0  0  0  0  0  0  0  0  0  0  0
    2.8033    0.2204   28.8926 C   0  0  0  0  0  0  0  0  0  0  0  0
    2.7056   -0.5033   27.7300 C   0  0  0  0  0  0  0  0  0  0  0  0
    1.5027   -1.1432   27.8140 N   0  0  0  0  0  0  0  0  0  0  0  0
   -0.6360   -4.8224   28.1519 H   0  0  0  0  0  0  0  0  0  0  0  0
   -2.2866   -6.7463   27.4787 H   0  0  0  0  0  0  0  0  0  0  0  0
   -0.7748   -8.1800   28.0167 H   0  0  0  0  0  0  0  0  0  0  0  0
   -0.2036  -10.1437   29.3686 H   0  0  0  0  0  0  0  0  0  0  0  0
   -0.5111  -10.1146   31.8258 H   0  0  0  0  0  0  0  0  0  0  0  0
   -1.3476   -8.0523   32.9021 H   0  0  0  0  0  0  0  0  0  0  0  0
   -1.7272   -6.0518   31.6069 H   0  0  0  0  0  0  0  0  0  0  0  0
   -1.6381   -2.2867   26.9876 H   0  0  0  0  0  0  0  0  0  0  0  0
   -2.7726   -2.0641   28.1959 H   0  0  0  0  0  0  0  0  0  0  0  0
   -2.5858    0.1099   27.3427 H   0  0  0  0  0  0  0  0  0  0  0  0
   -0.8474   -0.0267   27.0959 H   0  0  0  0  0  0  0  0  0  0  0  0
   -0.9957    0.9401   29.3433 H   0  0  0  0  0  0  0  0  0  0  0  0
   -2.3471   -0.1429   29.7721 H   0  0  0  0  0  0  0  0  0  0  0  0
   -0.4506   -1.3594   30.4709 H   0  0  0  0  0  0  0  0  0  0  0  0
    3.6063    0.8753   29.2055 H   0  0  0  0  0  0  0  0  0  0  0  0
    3.3550   -0.5989   26.8722 H   0  0  0  0  0  0  0  0  0  0  0  0
    1.0681   -1.7298   27.1166 H   0  0  0  0  0  0  0  0  0  0  0  0
  1  2  2  0
  2  3  1  0
  3  4  1  0
  3  5  1  0
  5  6  2  0
  6  7  1  0
  7  8  2  0
  8  9  1  0
  9 10  2  0
  2 11  1  0
 11 12  1  0
 12 13  1  0
 13 14  1  0
 14 15  1  0
 15 16  1  0
 16 17  2  0
 17 18  1  0
 18 19  2  0
 19 20  1  0
 10  5  1  0
 15 11  1  0
 20 16  1  0
  3 21  1  0
  4 22  1  0
  6 23  1  0
  7 24  1  0
  8 25  1  0
  9 26  1  0
 10 27  1  0
 12 28  1  0
 12 29  1  0
 13 30  1  0
 13 31  1  0
 14 32  1  0
 14 33  1  0
 15 34  1  0
 18 35  1  0
 19 36  1  0
 20 37  1  0
M  END
>  <Energy>  (1021) 
241.27141967982567

>  <compound_id>  (1021) 
18093

>  <target_id>  (1021) 
1

>  <reference_id>  (1021) 
116

>  <inspiration_ids>  (1021) 
[53, 116]

>  <energy_score>  (1021) 
155.2570291118223

>  <distance_score>  (1021) 
5.294952686378108

>  <path>  (1021) 
/opt/xchem-fragalysis-2/maxwin/BulkDock/SCRATCH/511021/C18093-P116/C18093-P116.minimised.mol

>  <scratch_subdir>  (1021) 
/opt/xchem-fragalysis-2/maxwin/BulkDock/SCRATCH/511021/C18093-P116

>  <fragmenstein_runtime>  (1021) 
15.016478538513184

>  <fragmenstein_outcome>  (1021) 
too moved

>  <fragmenstein_mode>  (1021) 
expansion

>  <fragmenstein_error>  (1021) 


$$$$
C14599-P53
     RDKit          3D

 39 41  0  0  0  0  0  0  0  0999 V2000
    1.4210   -3.6748   28.6737 O   0  0  0  0  0  0  0  0  0  0  0  0
    0.5839   -3.5862   29.5372 C   0  0  0  0  0  0  0  0  0  0  0  0
    0.5595   -4.6092   30.6960 C   0  0  0  0  0  0  0  0  0  0  0  0
   -0.0270   -5.8319   30.2521 O   0  0  0  0  0  0  0  0  0  0  0  0
    0.3326   -6.9747   31.0098 C   0  0  0  0  0  0  0  0  0  0  0  0
   -0.4425   -7.0582   32.3209 C   0  0  0  0  0  0  0  0  0  0  0  0
   -1.4862   -8.1220   32.0604 C   0  0  0  0  0  0  0  0  0  0  0  0
   -0.7744   -9.0444   31.2034 N   0  0  0  0  0  0  0  0  0  0  0  0
   -0.1203   -8.2060   30.2229 C   0  0  0  0  0  0  0  0  0  0  0  0
   -0.5348   -2.6990   29.6624 N   0  0  0  0  0  0  0  0  0  0  0  0
   -0.1357   -1.4524   30.4191 C   0  0  0  0  0  0  0  0  0  0  0  0
    0.6572   -0.4732   29.5743 C   0  0  0  0  0  0  0  0  0  0  0  0
   -0.0923   -0.5981   28.2888 C   0  0  0  0  0  0  0  0  0  0  0  0
   -0.7729    0.6472   27.8348 C   0  0  0  0  0  0  0  0  0  0  0  0
   -0.7454    1.8319   28.4099 N   0  0  0  0  0  0  0  0  0  0  0  0
   -1.5281    2.6441   27.6286 C   0  0  0  0  0  0  0  0  0  0  0  0
   -2.0462    1.9408   26.5677 C   0  0  0  0  0  0  0  0  0  0  0  0
   -1.5524    0.6743   26.7009 N   0  0  0  0  0  0  0  0  0  0  0  0
   -1.0871   -1.6735   28.7102 C   0  0  0  0  0  0  0  0  0  0  0  0
   -0.0131   -4.2192   31.5433 H   0  0  0  0  0  0  0  0  0  0  0  0
    1.5968   -4.7589   31.0178 H   0  0  0  0  0  0  0  0  0  0  0  0
    1.4101   -6.9865   31.1949 H   0  0  0  0  0  0  0  0  0  0  0  0
    0.2286   -7.3926   33.1221 H   0  0  0  0  0  0  0  0  0  0  0  0
   -0.9005   -6.1136   32.6262 H   0  0  0  0  0  0  0  0  0  0  0  0
   -1.8573   -8.5584   32.9839 H   0  0  0  0  0  0  0  0  0  0  0  0
   -2.3378   -7.7008   31.5326 H   0  0  0  0  0  0  0  0  0  0  0  0
   -1.3368   -9.7680   30.7822 H   0  0  0  0  0  0  0  0  0  0  0  0
   -0.8453   -7.9315   29.4548 H   0  0  0  0  0  0  0  0  0  0  0  0
    0.7088   -8.7101   29.7250 H   0  0  0  0  0  0  0  0  0  0  0  0
   -1.0195   -0.9952   30.8961 H   0  0  0  0  0  0  0  0  0  0  0  0
    0.4961   -1.7673   31.2614 H   0  0  0  0  0  0  0  0  0  0  0  0
    1.6901   -0.8203   29.4524 H   0  0  0  0  0  0  0  0  0  0  0  0
    0.6889    0.5207   30.0293 H   0  0  0  0  0  0  0  0  0  0  0  0
    0.5781   -0.9630   27.5027 H   0  0  0  0  0  0  0  0  0  0  0  0
   -1.6912    3.6858   27.8788 H   0  0  0  0  0  0  0  0  0  0  0  0
   -2.7084    2.2288   25.7627 H   0  0  0  0  0  0  0  0  0  0  0  0
   -1.7217   -0.1168   26.0858 H   0  0  0  0  0  0  0  0  0  0  0  0
   -1.3478   -2.2394   27.8098 H   0  0  0  0  0  0  0  0  0  0  0  0
   -2.0497   -1.2897   29.0876 H   0  0  0  0  0  0  0  0  0  0  0  0
  1  2  2  0
  2  3  1  0
  3  4  1  0
  4  5  1  0
  5  6  1  0
  6  7  1  0
  7  8  1  0
  8  9  1  0
  2 10  1  0
 10 11  1  0
 11 12  1  0
 12 13  1  0
 13 14  1  0
 14 15  2  0
 15 16  1  0
 16 17  2  0
 17 18  1  0
 13 19  1  0
  9  5  1  0
 19 10  1  0
 18 14  1  0
  3 20  1  0
  3 21  1  0
  5 22  1  0
  6 23  1  0
  6 24  1  0
  7 25  1  0
  7 26  1  0
  8 27  1  0
  9 28  1  0
  9 29  1  0
 11 30  1  0
 11 31  1  0
 12 32  1  0
 12 33  1  0
 13 34  1  0
 16 35  1  0
 17 36  1  0
 18 37  1  0
 19 38  1  0
 19 39  1  0
M  END
>  <Energy>  (1022) 
118.42846931947516

>  <compound_id>  (1022) 
14599

>  <target_id>  (1022) 
1

>  <reference_id>  (1022) 
53

>  <inspiration_ids>  (1022) 
[53, 116]

>  <energy_score>  (1022) 
33.87674886452294

>  <distance_score>  (1022) 
5.2905944536163085

>  <path>  (1022) 
/opt/xchem-fragalysis-2/maxwin/BulkDock/SCRATCH/511021/C14599-P53/C14599-P53.minimised.mol

>  <scratch_subdir>  (1022) 
/opt/xchem-fragalysis-2/maxwin/BulkDock/SCRATCH/511021/C14599-P53

>  <fragmenstein_runtime>  (1022) 
14.464924812316895

>  <fragmenstein_outcome>  (1022) 
too moved

>  <fragmenstein_mode>  (1022) 
expansion

>  <fragmenstein_error>  (1022) 


$$$$
C14599-P116
     RDKit          3D

 39 41  0  0  0  0  0  0  0  0999 V2000
   -2.3786   -3.3378   30.2844 O   0  0  0  0  0  0  0  0  0  0  0  0
   -1.5500   -3.5130   29.4249 C   0  0  0  0  0  0  0  0  0  0  0  0
   -1.3958   -5.1150   28.5585 C   0  0  0  0  0  0  0  0  0  0  0  0
   -1.6162   -6.7422   28.9437 O   0  0  0  0  0  0  0  0  0  0  0  0
   -0.8813   -7.5117   29.9823 C   0  0  0  0  0  0  0  0  0  0  0  0
   -1.5831   -7.5367   31.3288 C   0  0  0  0  0  0  0  0  0  0  0  0
   -1.1784   -8.8442   31.9512 C   0  0  0  0  0  0  0  0  0  0  0  0
   -1.2871   -9.7693   30.8295 N   0  0  0  0  0  0  0  0  0  0  0  0
   -0.6912   -9.0286   29.7094 C   0  0  0  0  0  0  0  0  0  0  0  0
   -0.4784   -2.6377   28.9529 N   0  0  0  0  0  0  0  0  0  0  0  0
   -0.9584   -1.7889   27.8252 C   0  0  0  0  0  0  0  0  0  0  0  0
   -1.7355   -0.5564   28.1863 C   0  0  0  0  0  0  0  0  0  0  0  0
   -0.8564   -0.0285   29.2481 C   0  0  0  0  0  0  0  0  0  0  0  0
   -0.0817    1.1811   28.8038 C   0  0  0  0  0  0  0  0  0  0  0  0
    1.2261    1.3443   28.8328 N   0  0  0  0  0  0  0  0  0  0  0  0
    1.4647    2.5997   28.3331 C   0  0  0  0  0  0  0  0  0  0  0  0
    0.2877    3.2181   27.9978 C   0  0  0  0  0  0  0  0  0  0  0  0
   -0.6903    2.3134   28.3000 N   0  0  0  0  0  0  0  0  0  0  0  0
    0.0033   -1.2804   29.4686 C   0  0  0  0  0  0  0  0  0  0  0  0
   -0.5828   -4.7993   27.9359 H   0  0  0  0  0  0  0  0  0  0  0  0
   -1.7880   -5.3000   27.5809 H   0  0  0  0  0  0  0  0  0  0  0  0
    0.1495   -7.2053   30.1126 H   0  0  0  0  0  0  0  0  0  0  0  0
   -2.6503   -7.5852   31.1883 H   0  0  0  0  0  0  0  0  0  0  0  0
   -1.3465   -6.6773   31.9604 H   0  0  0  0  0  0  0  0  0  0  0  0
   -0.1579   -8.7600   32.3000 H   0  0  0  0  0  0  0  0  0  0  0  0
   -1.8281   -9.1342   32.7807 H   0  0  0  0  0  0  0  0  0  0  0  0
   -0.6966  -10.5836   31.0245 H   0  0  0  0  0  0  0  0  0  0  0  0
    0.3119   -9.3690   29.6586 H   0  0  0  0  0  0  0  0  0  0  0  0
   -0.9674   -9.3581   28.7310 H   0  0  0  0  0  0  0  0  0  0  0  0
   -0.0895   -1.5386   27.2029 H   0  0  0  0  0  0  0  0  0  0  0  0
   -1.6310   -2.3969   27.2299 H   0  0  0  0  0  0  0  0  0  0  0  0
   -2.6881   -0.8300   28.6090 H   0  0  0  0  0  0  0  0  0  0  0  0
   -1.9135    0.0898   27.3218 H   0  0  0  0  0  0  0  0  0  0  0  0
   -1.4266    0.2182   30.1506 H   0  0  0  0  0  0  0  0  0  0  0  0
    2.4702    2.9909   28.2472 H   0  0  0  0  0  0  0  0  0  0  0  0
    0.0623    4.1950   27.5935 H   0  0  0  0  0  0  0  0  0  0  0  0
   -1.6861    2.4552   28.1803 H   0  0  0  0  0  0  0  0  0  0  0  0
    0.1095   -1.4253   30.5529 H   0  0  0  0  0  0  0  0  0  0  0  0
    1.0349   -1.1658   29.0997 H   0  0  0  0  0  0  0  0  0  0  0  0
  1  2  2  0
  2  3  1  0
  3  4  1  0
  4  5  1  0
  5  6  1  0
  6  7  1  0
  7  8  1  0
  8  9  1  0
  2 10  1  0
 10 11  1  0
 11 12  1  0
 12 13  1  0
 13 14  1  0
 14 15  2  0
 15 16  1  0
 16 17  2  0
 17 18  1  0
 13 19  1  0
  9  5  1  0
 19 10  1  0
 18 14  1  0
  3 20  1  0
  3 21  1  0
  5 22  1  0
  6 23  1  0
  6 24  1  0
  7 25  1  0
  7 26  1  0
  8 27  1  0
  9 28  1  0
  9 29  1  0
 11 30  1  0
 11 31  1  0
 12 32  1  0
 12 33  1  0
 13 34  1  0
 16 35  1  0
 17 36  1  0
 18 37  1  0
 19 38  1  0
 19 39  1  0
M  END
>  <Energy>  (1023) 
215.75994250606414

>  <compound_id>  (1023) 
14599

>  <target_id>  (1023) 
1

>  <reference_id>  (1023) 
116

>  <inspiration_ids>  (1023) 
[53, 116]

>  <energy_score>  (1023) 
131.20822205110483

>  <distance_score>  (1023) 
4.547074537067549

>  <path>  (1023) 
/opt/xchem-fragalysis-2/maxwin/BulkDock/SCRATCH/511021/C14599-P116/C14599-P116.minimised.mol

>  <scratch_subdir>  (1023) 
/opt/xchem-fragalysis-2/maxwin/BulkDock/SCRATCH/511021/C14599-P116

>  <fragmenstein_runtime>  (1023) 
12.302357912063599

>  <fragmenstein_outcome>  (1023) 
too moved

>  <fragmenstein_mode>  (1023) 
expansion

>  <fragmenstein_error>  (1023) 


$$$$
C14616-P53
     RDKit          3D

 39 41  0  0  0  0  0  0  0  0999 V2000
    0.8268   -7.6019   29.7786 O   0  0  0  0  0  0  0  0  0  0  0  0
    0.3435   -7.1525   30.7886 C   0  0  0  0  0  0  0  0  0  0  0  0
   -0.7867   -8.0792   31.5029 C   0  0  0  0  0  0  0  0  0  0  0  0
   -1.6951   -9.0579   30.9426 O   0  0  0  0  0  0  0  0  0  0  0  0
   -1.2671  -10.2134   30.1477 C   0  0  0  0  0  0  0  0  0  0  0  0
   -2.5592  -11.2950   29.5206 C   0  0  0  0  0  0  0  0  0  0  0  0
   -2.4839  -11.5951   28.1479 C   0  0  0  0  0  0  0  0  0  0  0  0
   -1.3546  -10.7395   27.8669 N   0  0  0  0  0  0  0  0  0  0  0  0
   -0.7071   -9.7383   28.8497 C   0  0  0  0  0  0  0  0  0  0  0  0
    0.6769   -5.9459   31.5399 N   0  0  0  0  0  0  0  0  0  0  0  0
    1.7865   -4.9573   31.3548 C   0  0  0  0  0  0  0  0  0  0  0  0
    1.8196   -4.2998   29.9855 C   0  0  0  0  0  0  0  0  0  0  0  0
    0.3647   -4.2067   29.7039 C   0  0  0  0  0  0  0  0  0  0  0  0
   -0.1765   -4.7292   31.0302 C   0  0  0  0  0  0  0  0  0  0  0  0
   -0.4820   -3.5043   31.9100 C   0  0  0  0  0  0  0  0  0  0  0  0
    0.1097   -3.0884   33.0112 N   0  0  0  0  0  0  0  0  0  0  0  0
   -0.3983   -1.8412   33.2801 C   0  0  0  0  0  0  0  0  0  0  0  0
   -1.3263   -1.4813   32.3381 C   0  0  0  0  0  0  0  0  0  0  0  0
   -1.3766   -2.5350   31.4722 N   0  0  0  0  0  0  0  0  0  0  0  0
   -1.4429   -7.3705   32.0211 H   0  0  0  0  0  0  0  0  0  0  0  0
   -0.2377   -8.5981   32.2949 H   0  0  0  0  0  0  0  0  0  0  0  0
   -0.6032  -10.8128   30.7398 H   0  0  0  0  0  0  0  0  0  0  0  0
   -3.4999  -11.0812   29.9436 H   0  0  0  0  0  0  0  0  0  0  0  0
   -2.8525  -12.2655   29.8570 H   0  0  0  0  0  0  0  0  0  0  0  0
   -2.3783  -12.6319   28.1969 H   0  0  0  0  0  0  0  0  0  0  0  0
   -3.2707  -11.7299   27.4174 H   0  0  0  0  0  0  0  0  0  0  0  0
   -1.5154  -10.5158   26.8784 H   0  0  0  0  0  0  0  0  0  0  0  0
    0.3806   -9.7411   28.8130 H   0  0  0  0  0  0  0  0  0  0  0  0
   -0.9128   -8.6764   28.7109 H   0  0  0  0  0  0  0  0  0  0  0  0
    2.6956   -5.5659   31.4284 H   0  0  0  0  0  0  0  0  0  0  0  0
    1.8933   -4.2738   32.2029 H   0  0  0  0  0  0  0  0  0  0  0  0
    2.3269   -4.9267   29.2445 H   0  0  0  0  0  0  0  0  0  0  0  0
    2.3217   -3.3285   30.0197 H   0  0  0  0  0  0  0  0  0  0  0  0
    0.0566   -3.1988   29.4116 H   0  0  0  0  0  0  0  0  0  0  0  0
    0.0829   -4.8680   28.9006 H   0  0  0  0  0  0  0  0  0  0  0  0
   -1.1515   -5.1804   30.8848 H   0  0  0  0  0  0  0  0  0  0  0  0
   -0.0663   -1.2760   34.1417 H   0  0  0  0  0  0  0  0  0  0  0  0
   -1.9216   -0.5905   32.2023 H   0  0  0  0  0  0  0  0  0  0  0  0
   -1.9043   -2.5644   30.6088 H   0  0  0  0  0  0  0  0  0  0  0  0
  1  2  2  0
  2  3  1  0
  3  4  1  0
  4  5  1  0
  5  6  1  0
  6  7  1  0
  7  8  1  0
  8  9  1  0
  2 10  1  0
 10 11  1  0
 11 12  1  0
 12 13  1  0
 13 14  1  0
 14 15  1  0
 15 16  2  0
 16 17  1  0
 17 18  2  0
 18 19  1  0
  9  5  1  0
 14 10  1  0
 19 15  1  0
  3 20  1  0
  3 21  1  0
  5 22  1  0
  6 23  1  0
  6 24  1  0
  7 25  1  0
  7 26  1  0
  8 27  1  0
  9 28  1  0
  9 29  1  0
 11 30  1  0
 11 31  1  0
 12 32  1  0
 12 33  1  0
 13 34  1  0
 13 35  1  0
 14 36  1  0
 17 37  1  0
 18 38  1  0
 19 39  1  0
M  END
>  <Energy>  (1024) 
234.2546672399647

>  <compound_id>  (1024) 
14616

>  <target_id>  (1024) 
1

>  <reference_id>  (1024) 
53

>  <inspiration_ids>  (1024) 
[53, 116]

>  <energy_score>  (1024) 
138.83865751304643

>  <distance_score>  (1024) 
7.291382288723071

>  <path>  (1024) 
/opt/xchem-fragalysis-2/maxwin/BulkDock/SCRATCH/511021/C14616-P53/C14616-P53.minimised.mol

>  <scratch_subdir>  (1024) 
/opt/xchem-fragalysis-2/maxwin/BulkDock/SCRATCH/511021/C14616-P53

>  <fragmenstein_runtime>  (1024) 
19.38939929008484

>  <fragmenstein_outcome>  (1024) 
too moved

>  <fragmenstein_mode>  (1024) 
expansion

>  <fragmenstein_error>  (1024) 


$$$$
C14616-P116
     RDKit          3D

 39 41  0  0  0  0  0  0  0  0999 V2000
   -1.9973   -3.9504   30.9995 O   0  0  0  0  0  0  0  0  0  0  0  0
   -1.7515   -3.5865   29.8662 C   0  0  0  0  0  0  0  0  0  0  0  0
   -1.4001   -4.9711   28.7122 C   0  0  0  0  0  0  0  0  0  0  0  0
   -1.5804   -6.6819   29.0007 O   0  0  0  0  0  0  0  0  0  0  0  0
   -0.8740   -7.4970   30.0505 C   0  0  0  0  0  0  0  0  0  0  0  0
   -1.6489   -7.6052   31.3489 C   0  0  0  0  0  0  0  0  0  0  0  0
   -1.2751   -8.9317   31.9657 C   0  0  0  0  0  0  0  0  0  0  0  0
   -1.0132   -9.8142   30.8529 N   0  0  0  0  0  0  0  0  0  0  0  0
   -0.6455   -8.9952   29.7161 C   0  0  0  0  0  0  0  0  0  0  0  0
   -1.6734   -2.2513   29.3096 N   0  0  0  0  0  0  0  0  0  0  0  0
   -1.9823   -0.8949   29.9348 C   0  0  0  0  0  0  0  0  0  0  0  0
   -1.1008   -0.4887   31.1087 C   0  0  0  0  0  0  0  0  0  0  0  0
    0.0924   -1.3277   30.8398 C   0  0  0  0  0  0  0  0  0  0  0  0
   -0.2331   -1.7063   29.4058 C   0  0  0  0  0  0  0  0  0  0  0  0
    0.0968   -0.5373   28.4437 C   0  0  0  0  0  0  0  0  0  0  0  0
    0.9496    0.4432   28.6977 N   0  0  0  0  0  0  0  0  0  0  0  0
    0.6384    1.4504   27.8241 C   0  0  0  0  0  0  0  0  0  0  0  0
   -0.3937    1.0666   27.0076 C   0  0  0  0  0  0  0  0  0  0  0  0
   -0.6225   -0.2522   27.3046 N   0  0  0  0  0  0  0  0  0  0  0  0
   -1.6648   -5.0535   27.6831 H   0  0  0  0  0  0  0  0  0  0  0  0
   -0.5056   -4.5977   28.3165 H   0  0  0  0  0  0  0  0  0  0  0  0
    0.1464   -7.1871   30.2471 H   0  0  0  0  0  0  0  0  0  0  0  0
   -1.4636   -6.7637   32.0217 H   0  0  0  0  0  0  0  0  0  0  0  0
   -2.7044   -7.6586   31.1422 H   0  0  0  0  0  0  0  0  0  0  0  0
   -0.3845   -8.7909   32.5678 H   0  0  0  0  0  0  0  0  0  0  0  0
   -2.0637   -9.3176   32.6189 H   0  0  0  0  0  0  0  0  0  0  0  0
   -1.6744  -10.5518   30.6612 H   0  0  0  0  0  0  0  0  0  0  0  0
   -1.0618   -9.3067   28.7914 H   0  0  0  0  0  0  0  0  0  0  0  0
    0.3459   -9.2820   29.4570 H   0  0  0  0  0  0  0  0  0  0  0  0
   -2.9384   -1.0414   30.4393 H   0  0  0  0  0  0  0  0  0  0  0  0
   -2.1937   -0.1110   29.2005 H   0  0  0  0  0  0  0  0  0  0  0  0
   -1.5493   -0.7267   32.0792 H   0  0  0  0  0  0  0  0  0  0  0  0
   -0.8808    0.5824   31.0887 H   0  0  0  0  0  0  0  0  0  0  0  0
    1.0371   -0.7932   30.9744 H   0  0  0  0  0  0  0  0  0  0  0  0
    0.1018   -2.2029   31.4975 H   0  0  0  0  0  0  0  0  0  0  0  0
    0.4392   -2.5007   29.1094 H   0  0  0  0  0  0  0  0  0  0  0  0
    1.1465    2.4058   27.8541 H   0  0  0  0  0  0  0  0  0  0  0  0
   -0.9479    1.5883   26.2414 H   0  0  0  0  0  0  0  0  0  0  0  0
   -1.3026   -0.8658   26.8635 H   0  0  0  0  0  0  0  0  0  0  0  0
  1  2  2  0
  2  3  1  0
  3  4  1  0
  4  5  1  0
  5  6  1  0
  6  7  1  0
  7  8  1  0
  8  9  1  0
  2 10  1  0
 10 11  1  0
 11 12  1  0
 12 13  1  0
 13 14  1  0
 14 15  1  0
 15 16  2  0
 16 17  1  0
 17 18  2  0
 18 19  1  0
  9  5  1  0
 14 10  1  0
 19 15  1  0
  3 20  1  0
  3 21  1  0
  5 22  1  0
  6 23  1  0
  6 24  1  0
  7 25  1  0
  7 26  1  0
  8 27  1  0
  9 28  1  0
  9 29  1  0
 11 30  1  0
 11 31  1  0
 12 32  1  0
 12 33  1  0
 13 34  1  0
 13 35  1  0
 14 36  1  0
 17 37  1  0
 18 38  1  0
 19 39  1  0
M  END
>  <Energy>  (1025) 
229.04608435846339

>  <compound_id>  (1025) 
14616

>  <target_id>  (1025) 
1

>  <reference_id>  (1025) 
116

>  <inspiration_ids>  (1025) 
[53, 116]

>  <energy_score>  (1025) 
133.630074631537

>  <distance_score>  (1025) 
5.101297254351876

>  <path>  (1025) 
/opt/xchem-fragalysis-2/maxwin/BulkDock/SCRATCH/511021/C14616-P116/C14616-P116.minimised.mol

>  <scratch_subdir>  (1025) 
/opt/xchem-fragalysis-2/maxwin/BulkDock/SCRATCH/511021/C14616-P116

>  <fragmenstein_runtime>  (1025) 
10.118622779846191

>  <fragmenstein_outcome>  (1025) 
too moved

>  <fragmenstein_mode>  (1025) 
expansion

>  <fragmenstein_error>  (1025) 


$$$$
C18096-P53
     RDKit          3D

 41 42  0  0  0  0  0  0  0  0999 V2000
    0.8363   -7.6054   29.7573 O   0  0  0  0  0  0  0  0  0  0  0  0
   -0.1283   -7.3134   30.4065 C   0  0  0  0  0  0  0  0  0  0  0  0
   -0.3043   -5.8021   30.8781 C   0  0  0  0  0  0  0  0  0  0  0  0
    0.1952   -4.4879   29.6718 S   0  0  0  0  0  0  0  0  0  0  0  0
   -0.5942   -2.9903   30.3780 C   0  0  0  0  0  0  0  0  0  0  0  0
   -0.5156   -1.7710   29.5083 C   0  0  0  0  0  0  0  0  0  0  0  0
    0.0044   -0.6035   29.8501 N   0  0  0  0  0  0  0  0  0  0  0  0
   -0.2334    0.2410   28.7932 C   0  0  0  0  0  0  0  0  0  0  0  0
   -0.9305   -0.4097   27.8078 C   0  0  0  0  0  0  0  0  0  0  0  0
   -1.0987   -1.6894   28.2619 N   0  0  0  0  0  0  0  0  0  0  0  0
   -1.1919   -8.1513   30.9605 N   0  0  0  0  0  0  0  0  0  0  0  0
   -1.3589   -9.6366   30.9829 C   0  0  0  0  0  0  0  0  0  0  0  0
   -1.4526  -11.0046   29.7525 C   0  0  0  0  0  0  0  0  0  0  0  0
   -1.0037  -10.1973   28.5548 C   0  0  0  0  0  0  0  0  0  0  0  0
   -1.9875  -11.1356   27.6568 C   0  0  0  0  0  0  0  0  0  0  0  0
   -3.0070  -11.5598   28.6730 C   0  0  0  0  0  0  0  0  0  0  0  0
   -2.3941  -12.6234   29.0753 N   0  0  0  0  0  0  0  0  0  0  0  0
   -1.7522  -14.0014   28.1103 C   0  0  0  0  0  0  0  0  0  0  0  0
   -1.7326  -14.0595   26.8970 O   0  0  0  0  0  0  0  0  0  0  0  0
   -1.3114  -15.2640   28.6704 C   0  0  0  0  0  0  0  0  0  0  0  0
   -0.6953  -16.2236   27.8553 O   0  0  0  0  0  0  0  0  0  0  0  0
    0.3559   -5.6921   31.7467 H   0  0  0  0  0  0  0  0  0  0  0  0
   -1.3123   -5.6212   31.2394 H   0  0  0  0  0  0  0  0  0  0  0  0
   -0.1081   -2.7800   31.3364 H   0  0  0  0  0  0  0  0  0  0  0  0
   -1.6475   -3.2060   30.5810 H   0  0  0  0  0  0  0  0  0  0  0  0
    0.0995    1.2708   28.8029 H   0  0  0  0  0  0  0  0  0  0  0  0
   -1.3043   -0.0985   26.8420 H   0  0  0  0  0  0  0  0  0  0  0  0
   -1.5750   -2.4392   27.7670 H   0  0  0  0  0  0  0  0  0  0  0  0
   -1.8059   -7.5760   31.5294 H   0  0  0  0  0  0  0  0  0  0  0  0
   -2.0589   -9.6842   31.7841 H   0  0  0  0  0  0  0  0  0  0  0  0
   -0.3921   -9.8324   31.4157 H   0  0  0  0  0  0  0  0  0  0  0  0
   -0.6977  -11.4616   30.4119 H   0  0  0  0  0  0  0  0  0  0  0  0
    0.0495  -10.0284   28.3170 H   0  0  0  0  0  0  0  0  0  0  0  0
   -1.1013   -9.1406   28.8164 H   0  0  0  0  0  0  0  0  0  0  0  0
   -2.0163  -11.9719   26.9456 H   0  0  0  0  0  0  0  0  0  0  0  0
   -2.1665  -10.6479   26.7173 H   0  0  0  0  0  0  0  0  0  0  0  0
   -3.8109  -11.9141   28.0612 H   0  0  0  0  0  0  0  0  0  0  0  0
   -3.4413  -11.3152   29.6163 H   0  0  0  0  0  0  0  0  0  0  0  0
   -2.3087  -15.6172   28.4236 H   0  0  0  0  0  0  0  0  0  0  0  0
   -1.2511  -15.4083   29.7273 H   0  0  0  0  0  0  0  0  0  0  0  0
    0.2474  -16.2935   28.0855 H   0  0  0  0  0  0  0  0  0  0  0  0
  1  2  2  0
  2  3  1  0
  3  4  1  0
  4  5  1  0
  5  6  1  0
  6  7  2  0
  7  8  1  0
  8  9  2  0
  9 10  1  0
  2 11  1  0
 11 12  1  0
 12 13  1  0
 13 14  1  0
 14 15  1  0
 15 16  1  0
 16 17  1  0
 17 18  1  0
 18 19  2  0
 18 20  1  0
 20 21  1  0
 10  6  1  0
 17 13  1  0
  3 22  1  0
  3 23  1  0
  5 24  1  0
  5 25  1  0
  8 26  1  0
  9 27  1  0
 10 28  1  0
 11 29  1  0
 12 30  1  0
 12 31  1  0
 13 32  1  0
 14 33  1  0
 14 34  1  0
 15 35  1  0
 15 36  1  0
 16 37  1  0
 16 38  1  0
 20 39  1  0
 20 40  1  0
 21 41  1  0
M  END
>  <Energy>  (1026) 
517.45016452542018

>  <compound_id>  (1026) 
18096

>  <target_id>  (1026) 
1

>  <reference_id>  (1026) 
53

>  <inspiration_ids>  (1026) 
[53, 116]

>  <energy_score>  (1026) 
409.80509599040977

>  <distance_score>  (1026) 
6.134294622014075

>  <path>  (1026) 
/opt/xchem-fragalysis-2/maxwin/BulkDock/SCRATCH/511021/C18096-P53/C18096-P53.minimised.mol

>  <scratch_subdir>  (1026) 
/opt/xchem-fragalysis-2/maxwin/BulkDock/SCRATCH/511021/C18096-P53

>  <fragmenstein_runtime>  (1026) 
12.875723123550415

>  <fragmenstein_outcome>  (1026) 
too moved

>  <fragmenstein_mode>  (1026) 
expansion

>  <fragmenstein_error>  (1026) 


$$$$
C18096-P116
     RDKit          3D

 41 42  0  0  0  0  0  0  0  0999 V2000
   -1.6545   -3.9308   30.3391 O   0  0  0  0  0  0  0  0  0  0  0  0
   -1.5869   -4.2897   29.1399 C   0  0  0  0  0  0  0  0  0  0  0  0
   -1.4274   -3.0334   28.2086 C   0  0  0  0  0  0  0  0  0  0  0  0
   -0.4289   -1.6104   28.8880 S   0  0  0  0  0  0  0  0  0  0  0  0
   -1.1900   -0.2753   27.8819 C   0  0  0  0  0  0  0  0  0  0  0  0
   -0.4898    1.0470   27.9294 C   0  0  0  0  0  0  0  0  0  0  0  0
    0.8067    1.2961   27.8719 N   0  0  0  0  0  0  0  0  0  0  0  0
    0.9315    2.6618   27.8913 C   0  0  0  0  0  0  0  0  0  0  0  0
   -0.3017    3.2608   27.9317 C   0  0  0  0  0  0  0  0  0  0  0  0
   -1.2001    2.2304   27.9328 N   0  0  0  0  0  0  0  0  0  0  0  0
   -1.5187   -5.9208   28.4398 N   0  0  0  0  0  0  0  0  0  0  0  0
   -1.3820   -7.6412   29.2924 C   0  0  0  0  0  0  0  0  0  0  0  0
   -0.4991   -9.4800   29.1740 C   0  0  0  0  0  0  0  0  0  0  0  0
    0.7137   -9.9976   28.3482 C   0  0  0  0  0  0  0  0  0  0  0  0
    0.0052  -10.4376   27.1430 C   0  0  0  0  0  0  0  0  0  0  0  0
   -1.1438  -11.0806   27.8234 C   0  0  0  0  0  0  0  0  0  0  0  0
   -1.0227  -11.2716   29.2511 N   0  0  0  0  0  0  0  0  0  0  0  0
   -0.0576  -12.0564   30.0175 C   0  0  0  0  0  0  0  0  0  0  0  0
    0.9322  -12.6637   29.6545 O   0  0  0  0  0  0  0  0  0  0  0  0
   -0.2956  -12.2949   31.4438 C   0  0  0  0  0  0  0  0  0  0  0  0
    0.5082  -13.4498   31.8124 O   0  0  0  0  0  0  0  0  0  0  0  0
   -2.3686   -2.5141   28.0478 H   0  0  0  0  0  0  0  0  0  0  0  0
   -0.8897   -3.3624   27.3501 H   0  0  0  0  0  0  0  0  0  0  0  0
   -2.2164   -0.1535   28.2403 H   0  0  0  0  0  0  0  0  0  0  0  0
   -1.2387   -0.5947   26.8411 H   0  0  0  0  0  0  0  0  0  0  0  0
    1.9025    3.1385   27.8753 H   0  0  0  0  0  0  0  0  0  0  0  0
   -0.6156    4.2949   27.9612 H   0  0  0  0  0  0  0  0  0  0  0  0
   -2.2097    2.3223   27.9479 H   0  0  0  0  0  0  0  0  0  0  0  0
   -1.5534   -5.8635   27.4275 H   0  0  0  0  0  0  0  0  0  0  0  0
   -0.6129   -7.3177   30.0053 H   0  0  0  0  0  0  0  0  0  0  0  0
   -2.2226   -7.6137   29.9815 H   0  0  0  0  0  0  0  0  0  0  0  0
   -0.1924   -9.4567   30.2290 H   0  0  0  0  0  0  0  0  0  0  0  0
    1.1745  -10.8623   28.7934 H   0  0  0  0  0  0  0  0  0  0  0  0
    1.7245   -9.6296   28.2406 H   0  0  0  0  0  0  0  0  0  0  0  0
    0.6037  -11.1522   26.5727 H   0  0  0  0  0  0  0  0  0  0  0  0
   -0.2887   -9.5920   26.5188 H   0  0  0  0  0  0  0  0  0  0  0  0
   -2.0677  -11.3569   27.3170 H   0  0  0  0  0  0  0  0  0  0  0  0
   -0.8269  -12.1243   27.5921 H   0  0  0  0  0  0  0  0  0  0  0  0
   -1.2123  -12.7953   31.5064 H   0  0  0  0  0  0  0  0  0  0  0  0
   -0.2184  -11.4067   32.0647 H   0  0  0  0  0  0  0  0  0  0  0  0
    1.1076  -13.5982   31.0467 H   0  0  0  0  0  0  0  0  0  0  0  0
  1  2  2  0
  2  3  1  0
  3  4  1  0
  4  5  1  0
  5  6  1  0
  6  7  2  0
  7  8  1  0
  8  9  2  0
  9 10  1  0
  2 11  1  0
 11 12  1  0
 12 13  1  0
 13 14  1  0
 14 15  1  0
 15 16  1  0
 16 17  1  0
 17 18  1  0
 18 19  2  0
 18 20  1  0
 20 21  1  0
 10  6  1  0
 17 13  1  0
  3 22  1  0
  3 23  1  0
  5 24  1  0
  5 25  1  0
  8 26  1  0
  9 27  1  0
 10 28  1  0
 11 29  1  0
 12 30  1  0
 12 31  1  0
 13 32  1  0
 14 33  1  0
 14 34  1  0
 15 35  1  0
 15 36  1  0
 16 37  1  0
 16 38  1  0
 20 39  1  0
 20 40  1  0
 21 41  1  0
M  END
>  <Energy>  (1027) 
465.42953587849371

>  <compound_id>  (1027) 
18096

>  <target_id>  (1027) 
1

>  <reference_id>  (1027) 
116

>  <inspiration_ids>  (1027) 
[53, 116]

>  <energy_score>  (1027) 
357.784467343472

>  <distance_score>  (1027) 
4.05050048367058

>  <path>  (1027) 
/opt/xchem-fragalysis-2/maxwin/BulkDock/SCRATCH/511021/C18096-P116/C18096-P116.minimised.mol

>  <scratch_subdir>  (1027) 
/opt/xchem-fragalysis-2/maxwin/BulkDock/SCRATCH/511021/C18096-P116

>  <fragmenstein_runtime>  (1027) 
10.600383758544922

>  <fragmenstein_outcome>  (1027) 
too moved

>  <fragmenstein_mode>  (1027) 
expansion

>  <fragmenstein_error>  (1027) 


$$$$
C46386-P53
     RDKit          3D

 47 48  0  0  0  0  0  0  0  0999 V2000
    1.8280    4.8526   25.8763 C   0  0  0  0  0  0  0  0  0  0  0  0
    1.2727    3.1482   26.1302 S   0  0  0  0  0  0  0  0  0  0  0  0
    0.0163    3.3566   27.4957 C   0  0  0  0  0  0  0  0  0  0  0  0
   -1.0145    4.4275   27.1206 C   0  0  0  0  0  0  0  0  0  0  0  0
    0.7370    3.7399   28.7967 C   0  0  0  0  0  0  0  0  0  0  0  0
   -0.7128    1.9834   27.7528 C   0  0  0  0  0  0  0  0  0  0  0  0
   -1.8846    1.9893   27.9969 O   0  0  0  0  0  0  0  0  0  0  0  0
    0.2354    0.9028   27.7356 N   0  0  0  0  0  0  0  0  0  0  0  0
    0.0537   -0.5199   27.9130 C   0  0  0  0  0  0  0  0  0  0  0  0
   -0.6352   -0.8022   29.2368 C   0  0  0  0  0  0  0  0  0  0  0  0
    0.1365   -0.3519   30.4229 C   0  0  0  0  0  0  0  0  0  0  0  0
   -0.3692   -1.4194   31.3386 C   0  0  0  0  0  0  0  0  0  0  0  0
   -0.0764   -2.7917   30.8485 N   0  0  0  0  0  0  0  0  0  0  0  0
   -0.6044   -4.0622   31.2542 C   0  0  0  0  0  0  0  0  0  0  0  0
   -1.4815   -4.3282   32.0305 O   0  0  0  0  0  0  0  0  0  0  0  0
    0.2480   -5.2187   30.5824 C   0  0  0  0  0  0  0  0  0  0  0  0
    1.6265   -5.1319   30.9735 O   0  0  0  0  0  0  0  0  0  0  0  0
   -0.2487   -6.6397   30.8355 C   0  0  0  0  0  0  0  0  0  0  0  0
    0.2223   -7.8253   30.3046 C   0  0  0  0  0  0  0  0  0  0  0  0
   -0.4762   -8.8325   30.9055 N   0  0  0  0  0  0  0  0  0  0  0  0
   -1.3200   -8.2505   31.7919 C   0  0  0  0  0  0  0  0  0  0  0  0
   -1.2353   -6.9471   31.7385 N   0  0  0  0  0  0  0  0  0  0  0  0
   -0.8350   -2.2703   29.6128 C   0  0  0  0  0  0  0  0  0  0  0  0
    1.0339    5.4608   25.4374 H   0  0  0  0  0  0  0  0  0  0  0  0
    2.6647    4.8420   25.1716 H   0  0  0  0  0  0  0  0  0  0  0  0
    2.1798    5.3031   26.8062 H   0  0  0  0  0  0  0  0  0  0  0  0
   -1.8004    4.4923   27.8802 H   0  0  0  0  0  0  0  0  0  0  0  0
   -1.5094    4.1928   26.1712 H   0  0  0  0  0  0  0  0  0  0  0  0
   -0.5747    5.4269   27.0482 H   0  0  0  0  0  0  0  0  0  0  0  0
    1.1597    4.7487   28.7550 H   0  0  0  0  0  0  0  0  0  0  0  0
    1.5450    3.0410   29.0425 H   0  0  0  0  0  0  0  0  0  0  0  0
    0.0405    3.7185   29.6428 H   0  0  0  0  0  0  0  0  0  0  0  0
    1.1304    1.2529   27.4013 H   0  0  0  0  0  0  0  0  0  0  0  0
    1.0337   -1.0015   27.8445 H   0  0  0  0  0  0  0  0  0  0  0  0
   -0.5802   -0.8704   27.0965 H   0  0  0  0  0  0  0  0  0  0  0  0
   -1.6244   -0.3235   29.2295 H   0  0  0  0  0  0  0  0  0  0  0  0
    1.2211   -0.4232   30.2848 H   0  0  0  0  0  0  0  0  0  0  0  0
   -0.1226    0.6568   30.7556 H   0  0  0  0  0  0  0  0  0  0  0  0
   -1.4295   -1.3173   31.6308 H   0  0  0  0  0  0  0  0  0  0  0  0
    0.1701   -1.3471   32.2927 H   0  0  0  0  0  0  0  0  0  0  0  0
    0.2150   -5.0426   29.5045 H   0  0  0  0  0  0  0  0  0  0  0  0
    1.5938   -5.1228   31.9479 H   0  0  0  0  0  0  0  0  0  0  0  0
    1.0082   -8.0491   29.6091 H   0  0  0  0  0  0  0  0  0  0  0  0
   -0.3007   -9.8246   30.7946 H   0  0  0  0  0  0  0  0  0  0  0  0
   -1.9717   -8.7978   32.4539 H   0  0  0  0  0  0  0  0  0  0  0  0
   -1.9077   -2.4912   29.7447 H   0  0  0  0  0  0  0  0  0  0  0  0
   -0.5242   -2.9184   28.7822 H   0  0  0  0  0  0  0  0  0  0  0  0
  1  2  1  0
  2  3  1  0
  3  4  1  0
  3  5  1  0
  3  6  1  0
  6  7  2  0
  6  8  1  0
  8  9  1  0
  9 10  1  0
 10 11  1  0
 11 12  1  0
 12 13  1  0
 13 14  1  0
 14 15  2  0
 14 16  1  0
 16 17  1  0
 16 18  1  0
 18 19  2  0
 19 20  1  0
 20 21  1  0
 21 22  2  0
 13 23  1  0
 23 10  1  0
 22 18  1  0
  1 24  1  0
  1 25  1  0
  1 26  1  0
  4 27  1  0
  4 28  1  0
  4 29  1  0
  5 30  1  0
  5 31  1  0
  5 32  1  0
  8 33  1  0
  9 34  1  0
  9 35  1  0
 10 36  1  0
 11 37  1  0
 11 38  1  0
 12 39  1  0
 12 40  1  0
 16 41  1  0
 17 42  1  0
 19 43  1  0
 20 44  1  0
 21 45  1  0
 23 46  1  0
 23 47  1  0
M  END
>  <Energy>  (1028) 
159.07038879250791

>  <compound_id>  (1028) 
46386

>  <target_id>  (1028) 
1

>  <reference_id>  (1028) 
53

>  <inspiration_ids>  (1028) 
[53, 116]

>  <energy_score>  (1028) 
25.221940911099864

>  <distance_score>  (1028) 
4.301531848403001

>  <path>  (1028) 
/opt/xchem-fragalysis-2/maxwin/BulkDock/SCRATCH/511021/C46386-P53/C46386-P53.minimised.mol

>  <scratch_subdir>  (1028) 
/opt/xchem-fragalysis-2/maxwin/BulkDock/SCRATCH/511021/C46386-P53

>  <fragmenstein_runtime>  (1028) 
15.464502334594727

>  <fragmenstein_outcome>  (1028) 
too moved

>  <fragmenstein_mode>  (1028) 
expansion

>  <fragmenstein_error>  (1028) 


$$$$
C46386-P116
     RDKit          3D

 47 48  0  0  0  0  0  0  0  0999 V2000
    0.6755    3.4333   25.3350 C   0  0  0  0  0  0  0  0  0  0  0  0
    1.4018    2.6380   26.7889 S   0  0  0  0  0  0  0  0  0  0  0  0
   -0.0666    2.4823   27.9363 C   0  0  0  0  0  0  0  0  0  0  0  0
   -1.1696    3.5081   27.6384 C   0  0  0  0  0  0  0  0  0  0  0  0
    0.5114    2.7626   29.3378 C   0  0  0  0  0  0  0  0  0  0  0  0
   -0.6397    1.0047   27.8790 C   0  0  0  0  0  0  0  0  0  0  0  0
   -1.8165    0.8324   27.7427 O   0  0  0  0  0  0  0  0  0  0  0  0
    0.4266    0.0645   28.1057 N   0  0  0  0  0  0  0  0  0  0  0  0
    0.4259   -1.3812   28.1448 C   0  0  0  0  0  0  0  0  0  0  0  0
   -0.8980   -2.1657   28.2282 C   0  0  0  0  0  0  0  0  0  0  0  0
   -1.6194   -1.9471   29.4667 C   0  0  0  0  0  0  0  0  0  0  0  0
   -2.2975   -3.3060   29.3446 C   0  0  0  0  0  0  0  0  0  0  0  0
   -1.6170   -4.8216   28.8835 N   0  0  0  0  0  0  0  0  0  0  0  0
   -1.3910   -6.4277   29.8720 C   0  0  0  0  0  0  0  0  0  0  0  0
   -1.6847   -6.4047   31.0668 O   0  0  0  0  0  0  0  0  0  0  0  0
   -0.7232   -7.9046   29.4990 C   0  0  0  0  0  0  0  0  0  0  0  0
   -1.4240   -8.5562   30.7169 O   0  0  0  0  0  0  0  0  0  0  0  0
   -0.5039   -9.2894   28.7794 C   0  0  0  0  0  0  0  0  0  0  0  0
   -0.2065   -9.7417   27.4955 C   0  0  0  0  0  0  0  0  0  0  0  0
   -0.1439  -11.1126   27.5235 N   0  0  0  0  0  0  0  0  0  0  0  0
   -0.2835  -11.4934   28.8176 C   0  0  0  0  0  0  0  0  0  0  0  0
   -0.4667  -10.4510   29.5932 N   0  0  0  0  0  0  0  0  0  0  0  0
   -0.6612   -3.6974   28.6250 C   0  0  0  0  0  0  0  0  0  0  0  0
   -0.1769    2.8623   24.9602 H   0  0  0  0  0  0  0  0  0  0  0  0
    1.4302    3.4676   24.5439 H   0  0  0  0  0  0  0  0  0  0  0  0
    0.3782    4.4610   25.5566 H   0  0  0  0  0  0  0  0  0  0  0  0
   -0.7924    4.5363   27.6597 H   0  0  0  0  0  0  0  0  0  0  0  0
   -1.9687    3.4436   28.3828 H   0  0  0  0  0  0  0  0  0  0  0  0
   -1.6520    3.3274   26.6721 H   0  0  0  0  0  0  0  0  0  0  0  0
    0.7878    3.8172   29.4561 H   0  0  0  0  0  0  0  0  0  0  0  0
    1.3997    2.1606   29.5637 H   0  0  0  0  0  0  0  0  0  0  0  0
   -0.2109    2.5231   30.1197 H   0  0  0  0  0  0  0  0  0  0  0  0
    1.3140    0.5599   28.0877 H   0  0  0  0  0  0  0  0  0  0  0  0
    1.0600   -1.6211   29.0076 H   0  0  0  0  0  0  0  0  0  0  0  0
    1.0001   -1.7062   27.2796 H   0  0  0  0  0  0  0  0  0  0  0  0
   -1.5355   -2.0203   27.3525 H   0  0  0  0  0  0  0  0  0  0  0  0
   -0.9990   -1.8631   30.3688 H   0  0  0  0  0  0  0  0  0  0  0  0
   -2.2920   -1.0899   29.4531 H   0  0  0  0  0  0  0  0  0  0  0  0
   -2.5284   -3.5031   30.4073 H   0  0  0  0  0  0  0  0  0  0  0  0
   -3.2380   -3.1425   28.8671 H   0  0  0  0  0  0  0  0  0  0  0  0
    0.2525   -7.7125   29.9433 H   0  0  0  0  0  0  0  0  0  0  0  0
   -0.7262   -9.1497   31.0745 H   0  0  0  0  0  0  0  0  0  0  0  0
   -0.2116   -9.2251   26.5482 H   0  0  0  0  0  0  0  0  0  0  0  0
   -0.1007  -11.7146   26.7064 H   0  0  0  0  0  0  0  0  0  0  0  0
   -0.2618  -12.5273   29.1337 H   0  0  0  0  0  0  0  0  0  0  0  0
   -0.0290   -3.4182   29.4484 H   0  0  0  0  0  0  0  0  0  0  0  0
   -0.4537   -4.0129   27.6031 H   0  0  0  0  0  0  0  0  0  0  0  0
  1  2  1  0
  2  3  1  0
  3  4  1  0
  3  5  1  0
  3  6  1  0
  6  7  2  0
  6  8  1  0
  8  9  1  0
  9 10  1  0
 10 11  1  0
 11 12  1  0
 12 13  1  0
 13 14  1  0
 14 15  2  0
 14 16  1  0
 16 17  1  0
 16 18  1  0
 18 19  2  0
 19 20  1  0
 20 21  1  0
 21 22  2  0
 13 23  1  0
 23 10  1  0
 22 18  1  0
  1 24  1  0
  1 25  1  0
  1 26  1  0
  4 27  1  0
  4 28  1  0
  4 29  1  0
  5 30  1  0
  5 31  1  0
  5 32  1  0
  8 33  1  0
  9 34  1  0
  9 35  1  0
 10 36  1  0
 11 37  1  0
 11 38  1  0
 12 39  1  0
 12 40  1  0
 16 41  1  0
 17 42  1  0
 19 43  1  0
 20 44  1  0
 21 45  1  0
 23 46  1  0
 23 47  1  0
M  END
>  <Energy>  (1029) 
462.51983801065842

>  <compound_id>  (1029) 
46386

>  <target_id>  (1029) 
1

>  <reference_id>  (1029) 
116

>  <inspiration_ids>  (1029) 
[53, 116]

>  <energy_score>  (1029) 
328.67139012925315

>  <distance_score>  (1029) 
3.130935549875636

>  <path>  (1029) 
/opt/xchem-fragalysis-2/maxwin/BulkDock/SCRATCH/511021/C46386-P116/C46386-P116.minimised.mol

>  <scratch_subdir>  (1029) 
/opt/xchem-fragalysis-2/maxwin/BulkDock/SCRATCH/511021/C46386-P116

>  <fragmenstein_runtime>  (1029) 
14.69902229309082

>  <fragmenstein_outcome>  (1029) 
too moved

>  <fragmenstein_mode>  (1029) 
expansion

>  <fragmenstein_error>  (1029) 


$$$$
C46387-P53
     RDKit          3D

 44 45  0  0  0  0  0  0  0  0999 V2000
    3.0551   -3.2626   29.6686 C   0  0  0  0  0  0  0  0  0  0  0  0
    1.7609   -2.6372   29.3172 N   0  0  0  0  0  0  0  0  0  0  0  0
    1.2142   -3.9940   29.8622 C   0  0  0  0  0  0  0  0  0  0  0  0
    1.3852   -4.5768   31.3827 C   0  0  0  0  0  0  0  0  0  0  0  0
    1.2418   -3.6370   32.5495 C   0  0  0  0  0  0  0  0  0  0  0  0
   -0.2269   -3.7224   32.7298 C   0  0  0  0  0  0  0  0  0  0  0  0
   -0.5125   -4.9259   31.8693 C   0  0  0  0  0  0  0  0  0  0  0  0
    0.6391   -5.8790   31.7552 N   0  0  0  0  0  0  0  0  0  0  0  0
    0.2748   -7.0019   30.9600 C   0  0  0  0  0  0  0  0  0  0  0  0
    0.3753   -7.1862   29.7764 O   0  0  0  0  0  0  0  0  0  0  0  0
   -0.4445   -8.0610   31.8224 C   0  0  0  0  0  0  0  0  0  0  0  0
   -0.9028   -9.1559   31.0307 O   0  0  0  0  0  0  0  0  0  0  0  0
    1.0545   -1.5388   29.9201 C   0  0  0  0  0  0  0  0  0  0  0  0
    1.2945   -0.9081   30.9196 O   0  0  0  0  0  0  0  0  0  0  0  0
   -0.1468   -1.0973   29.0091 C   0  0  0  0  0  0  0  0  0  0  0  0
   -1.3266   -0.9007   29.8034 O   0  0  0  0  0  0  0  0  0  0  0  0
    0.2957    0.2170   28.3232 C   0  0  0  0  0  0  0  0  0  0  0  0
   -0.7639    0.9985   27.6139 C   0  0  0  0  0  0  0  0  0  0  0  0
   -0.6066    2.1272   26.8333 C   0  0  0  0  0  0  0  0  0  0  0  0
   -1.8717    2.5383   26.5207 N   0  0  0  0  0  0  0  0  0  0  0  0
   -2.7353    1.6515   27.0929 C   0  0  0  0  0  0  0  0  0  0  0  0
   -2.1025    0.7202   27.7736 N   0  0  0  0  0  0  0  0  0  0  0  0
    3.7808   -2.5632   29.2253 H   0  0  0  0  0  0  0  0  0  0  0  0
    3.3154   -4.2127   29.1802 H   0  0  0  0  0  0  0  0  0  0  0  0
    3.3072   -3.1856   30.7320 H   0  0  0  0  0  0  0  0  0  0  0  0
    1.4409   -4.7970   29.1408 H   0  0  0  0  0  0  0  0  0  0  0  0
    0.1431   -3.8527   29.6852 H   0  0  0  0  0  0  0  0  0  0  0  0
    2.4208   -4.9443   31.4081 H   0  0  0  0  0  0  0  0  0  0  0  0
    1.6290   -2.6326   32.4089 H   0  0  0  0  0  0  0  0  0  0  0  0
    1.7488   -4.0492   33.4318 H   0  0  0  0  0  0  0  0  0  0  0  0
   -0.7616   -2.8394   32.3668 H   0  0  0  0  0  0  0  0  0  0  0  0
   -0.4906   -3.8802   33.7804 H   0  0  0  0  0  0  0  0  0  0  0  0
   -1.2897   -5.4889   32.3969 H   0  0  0  0  0  0  0  0  0  0  0  0
   -0.9916   -4.7042   30.9153 H   0  0  0  0  0  0  0  0  0  0  0  0
   -1.3268   -7.6266   32.2964 H   0  0  0  0  0  0  0  0  0  0  0  0
    0.2302   -8.4176   32.6010 H   0  0  0  0  0  0  0  0  0  0  0  0
   -0.1034   -9.5539   30.6298 H   0  0  0  0  0  0  0  0  0  0  0  0
   -0.3737   -1.8659   28.2628 H   0  0  0  0  0  0  0  0  0  0  0  0
   -1.9295   -0.3919   29.2114 H   0  0  0  0  0  0  0  0  0  0  0  0
    0.7151    0.8920   29.0821 H   0  0  0  0  0  0  0  0  0  0  0  0
    1.1119   -0.0038   27.6236 H   0  0  0  0  0  0  0  0  0  0  0  0
    0.2681    2.6789   26.5208 H   0  0  0  0  0  0  0  0  0  0  0  0
   -2.1397    3.3635   25.9986 H   0  0  0  0  0  0  0  0  0  0  0  0
   -3.8066    1.7581   26.9880 H   0  0  0  0  0  0  0  0  0  0  0  0
  1  2  1  0
  2  3  1  0
  3  4  1  0
  4  5  1  0
  5  6  1  0
  6  7  1  0
  7  8  1  0
  8  9  1  0
  9 10  2  0
  9 11  1  0
 11 12  1  0
  2 13  1  0
 13 14  2  0
 13 15  1  0
 15 16  1  0
 15 17  1  0
 17 18  1  0
 18 19  2  0
 19 20  1  0
 20 21  1  0
 21 22  2  0
  8  4  1  0
 22 18  1  0
  1 23  1  0
  1 24  1  0
  1 25  1  0
  3 26  1  0
  3 27  1  0
  4 28  1  0
  5 29  1  0
  5 30  1  0
  6 31  1  0
  6 32  1  0
  7 33  1  0
  7 34  1  0
 11 35  1  0
 11 36  1  0
 12 37  1  0
 15 38  1  0
 16 39  1  0
 17 40  1  0
 17 41  1  0
 19 42  1  0
 20 43  1  0
 21 44  1  0
M  END
>  <Energy>  (1030) 
215.81912660133389

>  <compound_id>  (1030) 
46387

>  <target_id>  (1030) 
1

>  <reference_id>  (1030) 
53

>  <inspiration_ids>  (1030) 
[53, 116]

>  <energy_score>  (1030) 
105.34639737548957

>  <distance_score>  (1030) 
7.5863511125045955

>  <path>  (1030) 
/opt/xchem-fragalysis-2/maxwin/BulkDock/SCRATCH/511021/C46387-P53/C46387-P53.minimised.mol

>  <scratch_subdir>  (1030) 
/opt/xchem-fragalysis-2/maxwin/BulkDock/SCRATCH/511021/C46387-P53

>  <fragmenstein_runtime>  (1030) 
27.40588879585266

>  <fragmenstein_outcome>  (1030) 
too moved

>  <fragmenstein_mode>  (1030) 
expansion

>  <fragmenstein_error>  (1030) 


$$$$
C46387-P116
     RDKit          3D

 44 45  0  0  0  0  0  0  0  0999 V2000
   -2.2254   -0.9477   31.1822 C   0  0  0  0  0  0  0  0  0  0  0  0
   -1.4656   -0.6200   29.9440 N   0  0  0  0  0  0  0  0  0  0  0  0
   -0.5962   -1.7859   30.4350 C   0  0  0  0  0  0  0  0  0  0  0  0
    0.4493   -1.4969   31.6043 C   0  0  0  0  0  0  0  0  0  0  0  0
    1.8527   -1.2787   31.0626 C   0  0  0  0  0  0  0  0  0  0  0  0
    2.6281   -1.5724   32.3023 C   0  0  0  0  0  0  0  0  0  0  0  0
    1.4922   -1.8703   33.2566 C   0  0  0  0  0  0  0  0  0  0  0  0
    0.4304   -2.6934   32.5661 N   0  0  0  0  0  0  0  0  0  0  0  0
   -0.5605   -3.1203   33.5099 C   0  0  0  0  0  0  0  0  0  0  0  0
   -1.5914   -2.5990   33.8524 O   0  0  0  0  0  0  0  0  0  0  0  0
   -0.1517   -4.5243   34.0285 C   0  0  0  0  0  0  0  0  0  0  0  0
   -1.0366   -5.0986   34.9694 O   0  0  0  0  0  0  0  0  0  0  0  0
   -0.6414    0.5087   29.6213 C   0  0  0  0  0  0  0  0  0  0  0  0
   -0.2814    1.4352   30.3035 O   0  0  0  0  0  0  0  0  0  0  0  0
   -0.2822    0.5081   28.0975 C   0  0  0  0  0  0  0  0  0  0  0  0
    0.4908   -0.6340   27.7329 O   0  0  0  0  0  0  0  0  0  0  0  0
   -1.5648    0.6233   27.2494 C   0  0  0  0  0  0  0  0  0  0  0  0
   -1.7770    1.9468   26.5965 C   0  0  0  0  0  0  0  0  0  0  0  0
   -2.0697    3.1611   27.1740 C   0  0  0  0  0  0  0  0  0  0  0  0
   -2.3391    4.0057   26.1319 N   0  0  0  0  0  0  0  0  0  0  0  0
   -2.1785    3.2976   24.9776 C   0  0  0  0  0  0  0  0  0  0  0  0
   -1.8118    2.0602   25.2212 N   0  0  0  0  0  0  0  0  0  0  0  0
   -3.0911   -0.2822   31.0932 H   0  0  0  0  0  0  0  0  0  0  0  0
   -2.7080   -1.9347   31.2260 H   0  0  0  0  0  0  0  0  0  0  0  0
   -1.7994   -0.5944   32.1242 H   0  0  0  0  0  0  0  0  0  0  0  0
   -1.1405   -2.7382   30.5579 H   0  0  0  0  0  0  0  0  0  0  0  0
    0.0089   -2.0322   29.5546 H   0  0  0  0  0  0  0  0  0  0  0  0
    0.1084   -0.5859   32.1196 H   0  0  0  0  0  0  0  0  0  0  0  0
    1.9966   -0.2495   30.7194 H   0  0  0  0  0  0  0  0  0  0  0  0
    2.1310   -1.9370   30.2377 H   0  0  0  0  0  0  0  0  0  0  0  0
    3.2339   -0.7274   32.6425 H   0  0  0  0  0  0  0  0  0  0  0  0
    3.2902   -2.4336   32.1723 H   0  0  0  0  0  0  0  0  0  0  0  0
    1.8919   -2.4867   34.0732 H   0  0  0  0  0  0  0  0  0  0  0  0
    1.0793   -0.9915   33.7812 H   0  0  0  0  0  0  0  0  0  0  0  0
    0.8314   -4.4593   34.5026 H   0  0  0  0  0  0  0  0  0  0  0  0
   -0.0813   -5.2070   33.1760 H   0  0  0  0  0  0  0  0  0  0  0  0
   -1.8991   -5.1617   34.5061 H   0  0  0  0  0  0  0  0  0  0  0  0
    0.3708    1.3723   27.9266 H   0  0  0  0  0  0  0  0  0  0  0  0
   -0.0829   -1.2305   27.2118 H   0  0  0  0  0  0  0  0  0  0  0  0
   -2.4481    0.4303   27.8615 H   0  0  0  0  0  0  0  0  0  0  0  0
   -1.5885   -0.1411   26.4683 H   0  0  0  0  0  0  0  0  0  0  0  0
   -2.1728    3.4816   28.2004 H   0  0  0  0  0  0  0  0  0  0  0  0
   -2.6913    4.9553   26.2068 H   0  0  0  0  0  0  0  0  0  0  0  0
   -2.3635    3.7296   24.0031 H   0  0  0  0  0  0  0  0  0  0  0  0
  1  2  1  0
  2  3  1  0
  3  4  1  0
  4  5  1  0
  5  6  1  0
  6  7  1  0
  7  8  1  0
  8  9  1  0
  9 10  2  0
  9 11  1  0
 11 12  1  0
  2 13  1  0
 13 14  2  0
 13 15  1  0
 15 16  1  0
 15 17  1  0
 17 18  1  0
 18 19  2  0
 19 20  1  0
 20 21  1  0
 21 22  2  0
  8  4  1  0
 22 18  1  0
  1 23  1  0
  1 24  1  0
  1 25  1  0
  3 26  1  0
  3 27  1  0
  4 28  1  0
  5 29  1  0
  5 30  1  0
  6 31  1  0
  6 32  1  0
  7 33  1  0
  7 34  1  0
 11 35  1  0
 11 36  1  0
 12 37  1  0
 15 38  1  0
 16 39  1  0
 17 40  1  0
 17 41  1  0
 19 42  1  0
 20 43  1  0
 21 44  1  0
M  END
>  <Energy>  (1031) 
204.90607836607475

>  <compound_id>  (1031) 
46387

>  <target_id>  (1031) 
1

>  <reference_id>  (1031) 
116

>  <inspiration_ids>  (1031) 
[53, 116]

>  <energy_score>  (1031) 
94.43334914022324

>  <distance_score>  (1031) 
8.484247373028635

>  <path>  (1031) 
/opt/xchem-fragalysis-2/maxwin/BulkDock/SCRATCH/511021/C46387-P116/C46387-P116.minimised.mol

>  <scratch_subdir>  (1031) 
/opt/xchem-fragalysis-2/maxwin/BulkDock/SCRATCH/511021/C46387-P116

>  <fragmenstein_runtime>  (1031) 
20.397533893585205

>  <fragmenstein_outcome>  (1031) 
too moved

>  <fragmenstein_mode>  (1031) 
expansion

>  <fragmenstein_error>  (1031) 


$$$$
C46390-P53
     RDKit          3D

 48 49  0  0  0  0  0  0  0  0999 V2000
    0.5134   -2.1386   28.8090 C   0  0  0  0  0  0  0  0  0  0  0  0
    0.1864   -1.5984   30.2049 C   0  0  0  0  0  0  0  0  0  0  0  0
   -0.5421   -2.7631   31.0455 C   0  0  0  0  0  0  0  0  0  0  0  0
   -1.7382   -2.8615   31.0475 O   0  0  0  0  0  0  0  0  0  0  0  0
    0.4859   -3.6223   31.6384 N   0  0  0  0  0  0  0  0  0  0  0  0
    0.3709   -4.8116   32.4938 C   0  0  0  0  0  0  0  0  0  0  0  0
   -0.0980   -6.0334   31.7039 C   0  0  0  0  0  0  0  0  0  0  0  0
    0.6738   -6.2191   30.4658 C   0  0  0  0  0  0  0  0  0  0  0  0
    0.1204   -7.5853   30.1829 C   0  0  0  0  0  0  0  0  0  0  0  0
   -0.2051   -8.6099   31.1975 N   0  0  0  0  0  0  0  0  0  0  0  0
   -1.4849   -9.1773   30.9259 C   0  0  0  0  0  0  0  0  0  0  0  0
   -2.5705   -8.8529   31.3115 O   0  0  0  0  0  0  0  0  0  0  0  0
   -1.4291  -10.5041   29.7179 C   0  0  0  0  0  0  0  0  0  0  0  0
   -0.6724  -11.2125   30.6738 O   0  0  0  0  0  0  0  0  0  0  0  0
   -2.4320  -11.8099   28.7103 C   0  0  0  0  0  0  0  0  0  0  0  0
   -2.6228  -12.0039   27.2812 C   0  0  0  0  0  0  0  0  0  0  0  0
   -2.1562  -13.3263   26.6823 N   0  0  0  0  0  0  0  0  0  0  0  0
   -1.7269  -14.1914   27.7235 C   0  0  0  0  0  0  0  0  0  0  0  0
   -2.0253  -13.4145   28.8783 N   0  0  0  0  0  0  0  0  0  0  0  0
    0.2129   -7.4648   32.1671 C   0  0  0  0  0  0  0  0  0  0  0  0
   -0.5530   -0.2936   30.2016 N   0  0  0  0  0  0  0  0  0  0  0  0
    0.3654    0.8346   29.9712 C   0  0  0  0  0  0  0  0  0  0  0  0
   -1.6170   -0.2311   29.1890 C   0  0  0  0  0  0  0  0  0  0  0  0
    1.0225   -1.3951   28.1885 H   0  0  0  0  0  0  0  0  0  0  0  0
   -0.3854   -2.4807   28.2849 H   0  0  0  0  0  0  0  0  0  0  0  0
    1.1788   -3.0061   28.8846 H   0  0  0  0  0  0  0  0  0  0  0  0
    1.1339   -1.4085   30.7262 H   0  0  0  0  0  0  0  0  0  0  0  0
    1.3931   -3.1896   31.5113 H   0  0  0  0  0  0  0  0  0  0  0  0
   -0.3395   -4.5864   33.2953 H   0  0  0  0  0  0  0  0  0  0  0  0
    1.3566   -4.9838   32.9378 H   0  0  0  0  0  0  0  0  0  0  0  0
   -1.1684   -5.9272   31.4961 H   0  0  0  0  0  0  0  0  0  0  0  0
    1.7594   -6.2290   30.6198 H   0  0  0  0  0  0  0  0  0  0  0  0
    0.4429   -5.4902   29.6866 H   0  0  0  0  0  0  0  0  0  0  0  0
    0.8218   -8.1211   29.5329 H   0  0  0  0  0  0  0  0  0  0  0  0
   -0.7991   -7.4427   29.5968 H   0  0  0  0  0  0  0  0  0  0  0  0
   -0.8276   -9.9893   28.9425 H   0  0  0  0  0  0  0  0  0  0  0  0
    0.1581  -10.7170   30.7644 H   0  0  0  0  0  0  0  0  0  0  0  0
   -2.6096  -11.3593   26.4631 H   0  0  0  0  0  0  0  0  0  0  0  0
   -2.0736  -13.4766   25.6982 H   0  0  0  0  0  0  0  0  0  0  0  0
   -1.4815  -15.2472   27.6951 H   0  0  0  0  0  0  0  0  0  0  0  0
   -0.3589   -7.6601   33.0836 H   0  0  0  0  0  0  0  0  0  0  0  0
    1.2682   -7.5997   32.4334 H   0  0  0  0  0  0  0  0  0  0  0  0
   -0.1710    1.7877   30.0239 H   0  0  0  0  0  0  0  0  0  0  0  0
    1.1316    0.8688   30.7536 H   0  0  0  0  0  0  0  0  0  0  0  0
    0.8660    0.7787   28.9986 H   0  0  0  0  0  0  0  0  0  0  0  0
   -1.2304   -0.2112   28.1637 H   0  0  0  0  0  0  0  0  0  0  0  0
   -2.2966   -1.0813   29.2817 H   0  0  0  0  0  0  0  0  0  0  0  0
   -2.2222    0.6687   29.3306 H   0  0  0  0  0  0  0  0  0  0  0  0
  1  2  1  0
  2  3  1  0
  3  4  2  0
  3  5  1  0
  5  6  1  0
  6  7  1  0
  7  8  1  0
  8  9  1  0
  9 10  1  0
 10 11  1  0
 11 12  2  0
 11 13  1  0
 13 14  1  0
 13 15  1  0
 15 16  2  0
 16 17  1  0
 17 18  1  0
 18 19  2  0
 10 20  1  0
  2 21  1  0
 21 22  1  0
 21 23  1  0
 20  7  1  0
 19 15  1  0
  1 24  1  0
  1 25  1  0
  1 26  1  0
  2 27  1  0
  5 28  1  0
  6 29  1  0
  6 30  1  0
  7 31  1  0
  8 32  1  0
  8 33  1  0
  9 34  1  0
  9 35  1  0
 13 36  1  0
 14 37  1  0
 16 38  1  0
 17 39  1  0
 18 40  1  0
 20 41  1  0
 20 42  1  0
 22 43  1  0
 22 44  1  0
 22 45  1  0
 23 46  1  0
 23 47  1  0
 23 48  1  0
M  END
>  <Energy>  (1032) 
362.30492996142561

>  <compound_id>  (1032) 
46390

>  <target_id>  (1032) 
1

>  <reference_id>  (1032) 
53

>  <inspiration_ids>  (1032) 
[53, 116]

>  <energy_score>  (1032) 
211.12716669615077

>  <distance_score>  (1032) 
4.998377844740486

>  <path>  (1032) 
/opt/xchem-fragalysis-2/maxwin/BulkDock/SCRATCH/511021/C46390-P53/C46390-P53.minimised.mol

>  <scratch_subdir>  (1032) 
/opt/xchem-fragalysis-2/maxwin/BulkDock/SCRATCH/511021/C46390-P53

>  <fragmenstein_runtime>  (1032) 
13.368701934814453

>  <fragmenstein_outcome>  (1032) 
too moved

>  <fragmenstein_mode>  (1032) 
expansion

>  <fragmenstein_error>  (1032) 


$$$$
C46390-P116
     RDKit          3D

 48 49  0  0  0  0  0  0  0  0999 V2000
   -2.3830    1.1447   26.4983 C   0  0  0  0  0  0  0  0  0  0  0  0
   -1.0437    0.8760   27.1782 C   0  0  0  0  0  0  0  0  0  0  0  0
   -1.2304   -0.3105   28.2004 C   0  0  0  0  0  0  0  0  0  0  0  0
   -1.2974   -0.0332   29.3681 O   0  0  0  0  0  0  0  0  0  0  0  0
   -1.2445   -1.6070   27.5291 N   0  0  0  0  0  0  0  0  0  0  0  0
   -1.4371   -2.9328   28.0511 C   0  0  0  0  0  0  0  0  0  0  0  0
   -1.1738   -4.6363   27.4084 C   0  0  0  0  0  0  0  0  0  0  0  0
   -1.5627   -6.1412   26.9553 C   0  0  0  0  0  0  0  0  0  0  0  0
   -1.8027   -7.1337   28.1675 C   0  0  0  0  0  0  0  0  0  0  0  0
   -1.0602   -6.8204   29.3691 N   0  0  0  0  0  0  0  0  0  0  0  0
   -1.5420   -7.5536   30.4804 C   0  0  0  0  0  0  0  0  0  0  0  0
   -2.3899   -7.2799   31.2843 O   0  0  0  0  0  0  0  0  0  0  0  0
   -0.7553   -8.9302   30.7967 C   0  0  0  0  0  0  0  0  0  0  0  0
   -1.4006   -9.5211   31.9643 O   0  0  0  0  0  0  0  0  0  0  0  0
   -0.4834  -10.0697   29.8166 C   0  0  0  0  0  0  0  0  0  0  0  0
   -0.3554  -11.4123   30.1548 C   0  0  0  0  0  0  0  0  0  0  0  0
   -0.1271  -12.0955   28.9986 N   0  0  0  0  0  0  0  0  0  0  0  0
   -0.0433  -11.1741   28.0042 C   0  0  0  0  0  0  0  0  0  0  0  0
   -0.2193   -9.9543   28.4636 N   0  0  0  0  0  0  0  0  0  0  0  0
   -1.4265   -5.1285   28.7884 C   0  0  0  0  0  0  0  0  0  0  0  0
   -0.4767    2.0911   27.8446 N   0  0  0  0  0  0  0  0  0  0  0  0
    0.9363    1.9043   28.1771 C   0  0  0  0  0  0  0  0  0  0  0  0
   -0.6492    3.3381   27.0981 C   0  0  0  0  0  0  0  0  0  0  0  0
   -2.8234    0.2129   26.1436 H   0  0  0  0  0  0  0  0  0  0  0  0
   -2.2709    1.7980   25.6270 H   0  0  0  0  0  0  0  0  0  0  0  0
   -3.0958    1.6105   27.1845 H   0  0  0  0  0  0  0  0  0  0  0  0
   -0.3227    0.5427   26.4361 H   0  0  0  0  0  0  0  0  0  0  0  0
   -1.2543   -1.4596   26.5202 H   0  0  0  0  0  0  0  0  0  0  0  0
   -2.3534   -2.8368   28.6518 H   0  0  0  0  0  0  0  0  0  0  0  0
   -0.6661   -2.8312   28.8349 H   0  0  0  0  0  0  0  0  0  0  0  0
   -0.2240   -4.4662   26.9788 H   0  0  0  0  0  0  0  0  0  0  0  0
   -0.7546   -6.5537   26.3380 H   0  0  0  0  0  0  0  0  0  0  0  0
   -2.2372   -6.4091   26.1924 H   0  0  0  0  0  0  0  0  0  0  0  0
   -1.1974   -7.9592   27.8368 H   0  0  0  0  0  0  0  0  0  0  0  0
   -2.8174   -7.3992   28.3585 H   0  0  0  0  0  0  0  0  0  0  0  0
    0.1817   -8.5470   31.1917 H   0  0  0  0  0  0  0  0  0  0  0  0
   -0.7696   -9.3521   32.6928 H   0  0  0  0  0  0  0  0  0  0  0  0
   -0.4065  -11.9123   31.1099 H   0  0  0  0  0  0  0  0  0  0  0  0
   -0.0120  -13.0946   28.8950 H   0  0  0  0  0  0  0  0  0  0  0  0
    0.1449  -11.4541   26.9773 H   0  0  0  0  0  0  0  0  0  0  0  0
   -1.7148   -4.3983   29.6120 H   0  0  0  0  0  0  0  0  0  0  0  0
   -0.5259   -4.6211   28.8412 H   0  0  0  0  0  0  0  0  0  0  0  0
    1.5569    1.8060   27.2788 H   0  0  0  0  0  0  0  0  0  0  0  0
    1.3102    2.7529   28.7612 H   0  0  0  0  0  0  0  0  0  0  0  0
    1.0916    1.0153   28.7972 H   0  0  0  0  0  0  0  0  0  0  0  0
   -0.2152    3.2752   26.0940 H   0  0  0  0  0  0  0  0  0  0  0  0
   -1.7063    3.6102   27.0140 H   0  0  0  0  0  0  0  0  0  0  0  0
   -0.1732    4.1740   27.6242 H   0  0  0  0  0  0  0  0  0  0  0  0
  1  2  1  0
  2  3  1  0
  3  4  2  0
  3  5  1  0
  5  6  1  0
  6  7  1  0
  7  8  1  0
  8  9  1  0
  9 10  1  0
 10 11  1  0
 11 12  2  0
 11 13  1  0
 13 14  1  0
 13 15  1  0
 15 16  2  0
 16 17  1  0
 17 18  1  0
 18 19  2  0
 10 20  1  0
  2 21  1  0
 21 22  1  0
 21 23  1  0
 20  7  1  0
 19 15  1  0
  1 24  1  0
  1 25  1  0
  1 26  1  0
  2 27  1  0
  5 28  1  0
  6 29  1  0
  6 30  1  0
  7 31  1  0
  8 32  1  0
  8 33  1  0
  9 34  1  0
  9 35  1  0
 13 36  1  0
 14 37  1  0
 16 38  1  0
 17 39  1  0
 18 40  1  0
 20 41  1  0
 20 42  1  0
 22 43  1  0
 22 44  1  0
 22 45  1  0
 23 46  1  0
 23 47  1  0
 23 48  1  0
M  END
>  <Energy>  (1033) 
391.56679193911492

>  <compound_id>  (1033) 
46390

>  <target_id>  (1033) 
1

>  <reference_id>  (1033) 
116

>  <inspiration_ids>  (1033) 
[53, 116]

>  <energy_score>  (1033) 
240.38902867383774

>  <distance_score>  (1033) 
3.034714402924123

>  <path>  (1033) 
/opt/xchem-fragalysis-2/maxwin/BulkDock/SCRATCH/511021/C46390-P116/C46390-P116.minimised.mol

>  <scratch_subdir>  (1033) 
/opt/xchem-fragalysis-2/maxwin/BulkDock/SCRATCH/511021/C46390-P116

>  <fragmenstein_runtime>  (1033) 
17.481703996658325

>  <fragmenstein_outcome>  (1033) 
too moved

>  <fragmenstein_mode>  (1033) 
expansion

>  <fragmenstein_error>  (1033) 


$$$$
C57044-P93
     RDKit          3D

 25 25  0  0  0  0  0  0  0  0999 V2000
    8.3052    0.8744   16.1482 C   0  0  0  0  0  0  0  0  0  0  0  0
    9.4948    0.2247   15.4588 C   0  0  0  0  0  0  0  0  0  0  0  0
   10.8119    0.6040   15.9966 N   0  0  0  0  0  0  0  0  0  0  0  0
   11.0364    2.0529   15.8525 C   0  0  0  0  0  0  0  0  0  0  0  0
   11.9675   -0.1471   15.4317 C   0  0  0  0  0  0  0  0  0  0  0  0
   11.8828   -1.6754   15.4592 C   0  0  0  0  0  0  0  0  0  0  0  0
   13.3324   -2.1171   15.4178 C   0  0  0  0  0  0  0  0  0  0  0  0
   13.9846   -1.1945   16.3341 N   0  0  0  0  0  0  0  0  0  0  0  0
   13.3232    0.1030   16.1588 C   0  0  0  0  0  0  0  0  0  0  0  0
    8.2551    1.9520   15.9704 H   0  0  0  0  0  0  0  0  0  0  0  0
    7.3966    0.4267   15.7339 H   0  0  0  0  0  0  0  0  0  0  0  0
    8.3507    0.6866   17.2208 H   0  0  0  0  0  0  0  0  0  0  0  0
    9.3631   -0.8561   15.5751 H   0  0  0  0  0  0  0  0  0  0  0  0
    9.4498    0.4438   14.3855 H   0  0  0  0  0  0  0  0  0  0  0  0
   10.9954    2.3666   14.8033 H   0  0  0  0  0  0  0  0  0  0  0  0
   10.2976    2.6268   16.4204 H   0  0  0  0  0  0  0  0  0  0  0  0
   12.0058    2.3567   16.2603 H   0  0  0  0  0  0  0  0  0  0  0  0
   12.0919    0.1468   14.3785 H   0  0  0  0  0  0  0  0  0  0  0  0
   11.3264   -2.0839   14.6157 H   0  0  0  0  0  0  0  0  0  0  0  0
   11.4177   -2.0362   16.3762 H   0  0  0  0  0  0  0  0  0  0  0  0
   13.4530   -3.1539   15.7428 H   0  0  0  0  0  0  0  0  0  0  0  0
   13.7434   -2.0101   14.4073 H   0  0  0  0  0  0  0  0  0  0  0  0
   14.9835   -1.1286   16.1467 H   0  0  0  0  0  0  0  0  0  0  0  0
   13.9445    0.7797   15.5607 H   0  0  0  0  0  0  0  0  0  0  0  0
   13.1948    0.5565   17.1456 H   0  0  0  0  0  0  0  0  0  0  0  0
  1  2  1  0
  2  3  1  0
  3  4  1  0
  3  5  1  0
  5  6  1  0
  6  7  1  0
  7  8  1  0
  8  9  1  0
  9  5  1  0
  1 10  1  0
  1 11  1  0
  1 12  1  0
  2 13  1  0
  2 14  1  0
  4 15  1  0
  4 16  1  0
  4 17  1  0
  5 18  1  0
  6 19  1  0
  6 20  1  0
  7 21  1  0
  7 22  1  0
  8 23  1  0
  9 24  1  0
  9 25  1  0
M  END
>  <Energy>  (1034) 
29.903304998056317

>  <compound_id>  (1034) 
57044

>  <target_id>  (1034) 
1

>  <reference_id>  (1034) 
93

>  <inspiration_ids>  (1034) 
[93, 70]

>  <energy_score>  (1034) 
-14.38010254270678

>  <distance_score>  (1034) 
8.654167712086474

>  <path>  (1034) 
/opt/xchem-fragalysis-2/maxwin/BulkDock/SCRATCH/511021/C57044-P93/C57044-P93.minimised.mol

>  <scratch_subdir>  (1034) 
/opt/xchem-fragalysis-2/maxwin/BulkDock/SCRATCH/511021/C57044-P93

>  <fragmenstein_runtime>  (1034) 
3.2481207847595215

>  <fragmenstein_outcome>  (1034) 
too moved

>  <fragmenstein_mode>  (1034) 
expansion

>  <fragmenstein_error>  (1034) 


$$$$
C57044-P70
     RDKit          3D

 25 25  0  0  0  0  0  0  0  0999 V2000
    3.7478    1.1927   21.7673 C   0  0  0  0  0  0  0  0  0  0  0  0
    5.3813    0.1581   21.2610 C   0  0  0  0  0  0  0  0  0  0  0  0
    7.2882    0.0401   20.5242 N   0  0  0  0  0  0  0  0  0  0  0  0
    7.6507    1.5174   20.9780 C   0  0  0  0  0  0  0  0  0  0  0  0
    8.8802   -0.7646   19.5473 C   0  0  0  0  0  0  0  0  0  0  0  0
    9.3341    0.3434   17.7330 C   0  0  0  0  0  0  0  0  0  0  0  0
   10.9597   -0.7401   17.0377 C   0  0  0  0  0  0  0  0  0  0  0  0
   11.6243   -2.3099   18.0090 N   0  0  0  0  0  0  0  0  0  0  0  0
   10.4783   -2.4488   19.8112 C   0  0  0  0  0  0  0  0  0  0  0  0
    3.2065    1.9858   21.1617 H   0  0  0  0  0  0  0  0  0  0  0  0
    3.6655    1.5997   22.7813 H   0  0  0  0  0  0  0  0  0  0  0  0
    2.7872    0.8470   21.5212 H   0  0  0  0  0  0  0  0  0  0  0  0
    5.0783   -0.8579   21.7271 H   0  0  0  0  0  0  0  0  0  0  0  0
    5.7100    0.9177   21.9852 H   0  0  0  0  0  0  0  0  0  0  0  0
    8.4437    1.7548   21.6956 H   0  0  0  0  0  0  0  0  0  0  0  0
    7.5544    1.9139   19.9835 H   0  0  0  0  0  0  0  0  0  0  0  0
    6.9624    2.1618   21.5220 H   0  0  0  0  0  0  0  0  0  0  0  0
    8.0186   -1.0401   18.9843 H   0  0  0  0  0  0  0  0  0  0  0  0
    9.4267    1.4406   17.6361 H   0  0  0  0  0  0  0  0  0  0  0  0
    8.5177    0.0872   17.0164 H   0  0  0  0  0  0  0  0  0  0  0  0
   11.8564   -0.1212   16.9043 H   0  0  0  0  0  0  0  0  0  0  0  0
   10.6387   -1.1885   16.0868 H   0  0  0  0  0  0  0  0  0  0  0  0
   12.6328   -2.2509   18.1973 H   0  0  0  0  0  0  0  0  0  0  0  0
   11.7747   -2.5911   20.0278 H   0  0  0  0  0  0  0  0  0  0  0  0
   10.7604   -3.2373   20.7027 H   0  0  0  0  0  0  0  0  0  0  0  0
  1  2  1  0
  2  3  1  0
  3  4  1  0
  3  5  1  0
  5  6  1  0
  6  7  1  0
  7  8  1  0
  8  9  1  0
  9  5  1  0
  1 10  1  0
  1 11  1  0
  1 12  1  0
  2 13  1  0
  2 14  1  0
  4 15  1  0
  4 16  1  0
  4 17  1  0
  5 18  1  0
  6 19  1  0
  6 20  1  0
  7 21  1  0
  7 22  1  0
  8 23  1  0
  9 24  1  0
  9 25  1  0
M  END
>  <Energy>  (1035) 
1114.5454010315643

>  <compound_id>  (1035) 
57044

>  <target_id>  (1035) 
1

>  <reference_id>  (1035) 
70

>  <inspiration_ids>  (1035) 
[93, 70]

>  <energy_score>  (1035) 
1070.2619934908043

>  <distance_score>  (1035) 
6.0283721830565575

>  <path>  (1035) 
/opt/xchem-fragalysis-2/maxwin/BulkDock/SCRATCH/511021/C57044-P70/C57044-P70.minimised.mol

>  <scratch_subdir>  (1035) 
/opt/xchem-fragalysis-2/maxwin/BulkDock/SCRATCH/511021/C57044-P70

>  <fragmenstein_runtime>  (1035) 
2.2064402103424072

>  <fragmenstein_outcome>  (1035) 
too moved

>  <fragmenstein_mode>  (1035) 
expansion

>  <fragmenstein_error>  (1035) 


$$$$
C50542-P76
     RDKit          3D

 34 36  0  0  0  0  0  0  0  0999 V2000
    5.2562  -19.2168   14.5946 C   0  0  0  0  0  0  0  0  0  0  0  0
    4.3900  -20.2451   15.3085 C   0  0  0  0  0  0  0  0  0  0  0  0
    3.0811  -20.1293   15.7226 C   0  0  0  0  0  0  0  0  0  0  0  0
    2.5232  -21.3410   16.2791 C   0  0  0  0  0  0  0  0  0  0  0  0
    3.3976  -22.4106   16.3514 C   0  0  0  0  0  0  0  0  0  0  0  0
    3.2717  -23.8856   16.8044 C   0  0  0  0  0  0  0  0  0  0  0  0
    4.3213  -24.4646   16.7738 O   0  0  0  0  0  0  0  0  0  0  0  0
    1.9047  -24.3859   17.1046 N   0  0  0  0  0  0  0  0  0  0  0  0
    1.4071  -25.7742   17.3601 C   0  0  0  0  0  0  0  0  0  0  0  0
    0.1372  -26.2880   18.1057 C   0  0  0  0  0  0  0  0  0  0  0  0
   -0.4463  -25.7256   19.2366 C   0  0  0  0  0  0  0  0  0  0  0  0
   -1.4529  -26.4233   19.9806 C   0  0  0  0  0  0  0  0  0  0  0  0
   -1.9194  -27.7059   19.6663 C   0  0  0  0  0  0  0  0  0  0  0  0
   -2.8457  -28.3420   20.4314 N   0  0  0  0  0  0  0  0  0  0  0  0
   -3.2431  -29.5857   20.0705 C   0  0  0  0  0  0  0  0  0  0  0  0
   -2.7544  -30.2457   18.9623 C   0  0  0  0  0  0  0  0  0  0  0  0
   -1.8007  -29.5876   18.1841 C   0  0  0  0  0  0  0  0  0  0  0  0
   -1.3592  -28.2944   18.5258 C   0  0  0  0  0  0  0  0  0  0  0  0
   -0.3593  -27.5886   17.7761 C   0  0  0  0  0  0  0  0  0  0  0  0
    4.9734  -21.8070   15.7449 S   0  0  0  0  0  0  0  0  0  0  0  0
    6.3038  -19.2972   14.9002 H   0  0  0  0  0  0  0  0  0  0  0  0
    4.9012  -18.2018   14.7955 H   0  0  0  0  0  0  0  0  0  0  0  0
    5.1995  -19.3882   13.5146 H   0  0  0  0  0  0  0  0  0  0  0  0
    2.4968  -19.2332   15.6049 H   0  0  0  0  0  0  0  0  0  0  0  0
    1.4922  -21.4224   16.5863 H   0  0  0  0  0  0  0  0  0  0  0  0
    1.2391  -23.6393   16.9584 H   0  0  0  0  0  0  0  0  0  0  0  0
    1.3439  -26.1873   16.3445 H   0  0  0  0  0  0  0  0  0  0  0  0
    2.2548  -26.2871   17.8332 H   0  0  0  0  0  0  0  0  0  0  0  0
   -0.1061  -24.7575   19.6008 H   0  0  0  0  0  0  0  0  0  0  0  0
   -1.8628  -25.9402   20.8671 H   0  0  0  0  0  0  0  0  0  0  0  0
   -3.9907  -30.0396   20.7148 H   0  0  0  0  0  0  0  0  0  0  0  0
   -3.1027  -31.2395   18.7067 H   0  0  0  0  0  0  0  0  0  0  0  0
   -1.3966  -30.0893   17.3081 H   0  0  0  0  0  0  0  0  0  0  0  0
    0.0845  -28.1030   16.9212 H   0  0  0  0  0  0  0  0  0  0  0  0
  1  2  1  0
  2  3  2  0
  3  4  1  0
  4  5  2  0
  5  6  1  0
  6  7  2  0
  6  8  1  0
  8  9  1  0
  9 10  1  0
 10 11  2  0
 11 12  1  0
 12 13  2  0
 13 14  1  0
 14 15  2  0
 15 16  1  0
 16 17  2  0
 17 18  1  0
 18 19  2  0
  5 20  1  0
 20  2  1  0
 19 10  1  0
 18 13  1  0
  1 21  1  0
  1 22  1  0
  1 23  1  0
  3 24  1  0
  4 25  1  0
  8 26  1  0
  9 27  1  0
  9 28  1  0
 11 29  1  0
 12 30  1  0
 15 31  1  0
 16 32  1  0
 17 33  1  0
 19 34  1  0
M  END
>  <Energy>  (1036) 
58.583138949874225

>  <compound_id>  (1036) 
50542

>  <target_id>  (1036) 
1

>  <reference_id>  (1036) 
76

>  <inspiration_ids>  (1036) 
[76, 68]

>  <energy_score>  (1036) 
19.799061679213594

>  <distance_score>  (1036) 
16.684894002495298

>  <path>  (1036) 
/opt/xchem-fragalysis-2/maxwin/BulkDock/SCRATCH/511021/C50542-P76/C50542-P76.minimised.mol

>  <scratch_subdir>  (1036) 
/opt/xchem-fragalysis-2/maxwin/BulkDock/SCRATCH/511021/C50542-P76

>  <fragmenstein_runtime>  (1036) 
6.670328378677368

>  <fragmenstein_outcome>  (1036) 
too moved

>  <fragmenstein_mode>  (1036) 
expansion

>  <fragmenstein_error>  (1036) 


$$$$
C50542-P68
     RDKit          3D

 34 36  0  0  0  0  0  0  0  0999 V2000
    5.4537  -17.8139   15.2637 C   0  0  0  0  0  0  0  0  0  0  0  0
    4.7101  -19.0774   15.6381 C   0  0  0  0  0  0  0  0  0  0  0  0
    5.0865  -20.3967   15.5088 C   0  0  0  0  0  0  0  0  0  0  0  0
    4.1333  -21.3411   16.0937 C   0  0  0  0  0  0  0  0  0  0  0  0
    3.0131  -20.7587   16.6731 C   0  0  0  0  0  0  0  0  0  0  0  0
    1.8206  -21.2403   17.5549 C   0  0  0  0  0  0  0  0  0  0  0  0
    1.1723  -20.3210   17.9765 O   0  0  0  0  0  0  0  0  0  0  0  0
    1.7142  -22.6922   17.8247 N   0  0  0  0  0  0  0  0  0  0  0  0
    0.8379  -23.4501   18.7777 C   0  0  0  0  0  0  0  0  0  0  0  0
    0.1200  -24.8287   18.6259 C   0  0  0  0  0  0  0  0  0  0  0  0
   -0.8101  -25.1271   17.6280 C   0  0  0  0  0  0  0  0  0  0  0  0
   -1.6260  -26.2996   17.6897 C   0  0  0  0  0  0  0  0  0  0  0  0
   -1.5771  -27.2298   18.7310 C   0  0  0  0  0  0  0  0  0  0  0  0
   -2.3773  -28.3254   18.7346 N   0  0  0  0  0  0  0  0  0  0  0  0
   -2.2660  -29.2035   19.7556 C   0  0  0  0  0  0  0  0  0  0  0  0
   -1.3955  -29.0329   20.8103 C   0  0  0  0  0  0  0  0  0  0  0  0
   -0.5881  -27.8927   20.8100 C   0  0  0  0  0  0  0  0  0  0  0  0
   -0.6581  -26.9602   19.7561 C   0  0  0  0  0  0  0  0  0  0  0  0
    0.1559  -25.7753   19.6953 C   0  0  0  0  0  0  0  0  0  0  0  0
    3.1482  -19.0130   16.3294 S   0  0  0  0  0  0  0  0  0  0  0  0
    5.4302  -17.6788   14.1782 H   0  0  0  0  0  0  0  0  0  0  0  0
    5.0018  -16.9426   15.7408 H   0  0  0  0  0  0  0  0  0  0  0  0
    6.4974  -17.8839   15.5849 H   0  0  0  0  0  0  0  0  0  0  0  0
    6.0174  -20.7068   15.0498 H   0  0  0  0  0  0  0  0  0  0  0  0
    4.3145  -22.4077   16.1175 H   0  0  0  0  0  0  0  0  0  0  0  0
    2.3688  -23.1864   17.2359 H   0  0  0  0  0  0  0  0  0  0  0  0
    1.4851  -23.5410   19.6599 H   0  0  0  0  0  0  0  0  0  0  0  0
    0.0540  -22.7395   19.0717 H   0  0  0  0  0  0  0  0  0  0  0  0
   -0.9565  -24.4342   16.7998 H   0  0  0  0  0  0  0  0  0  0  0  0
   -2.3389  -26.4744   16.8845 H   0  0  0  0  0  0  0  0  0  0  0  0
   -2.9165  -30.0678   19.6948 H   0  0  0  0  0  0  0  0  0  0  0  0
   -1.3377  -29.7682   21.6044 H   0  0  0  0  0  0  0  0  0  0  0  0
    0.1081  -27.7384   21.6305 H   0  0  0  0  0  0  0  0  0  0  0  0
    0.8252  -25.5791   20.5345 H   0  0  0  0  0  0  0  0  0  0  0  0
  1  2  1  0
  2  3  2  0
  3  4  1  0
  4  5  2  0
  5  6  1  0
  6  7  2  0
  6  8  1  0
  8  9  1  0
  9 10  1  0
 10 11  2  0
 11 12  1  0
 12 13  2  0
 13 14  1  0
 14 15  2  0
 15 16  1  0
 16 17  2  0
 17 18  1  0
 18 19  2  0
  5 20  1  0
 20  2  1  0
 19 10  1  0
 18 13  1  0
  1 21  1  0
  1 22  1  0
  1 23  1  0
  3 24  1  0
  4 25  1  0
  8 26  1  0
  9 27  1  0
  9 28  1  0
 11 29  1  0
 12 30  1  0
 15 31  1  0
 16 32  1  0
 17 33  1  0
 19 34  1  0
M  END
>  <Energy>  (1037) 
60.703365749999051

>  <compound_id>  (1037) 
50542

>  <target_id>  (1037) 
1

>  <reference_id>  (1037) 
68

>  <inspiration_ids>  (1037) 
[76, 68]

>  <energy_score>  (1037) 
21.919288479342185

>  <distance_score>  (1037) 
16.497650441033837

>  <path>  (1037) 
/opt/xchem-fragalysis-2/maxwin/BulkDock/SCRATCH/511021/C50542-P68/C50542-P68.minimised.mol

>  <scratch_subdir>  (1037) 
/opt/xchem-fragalysis-2/maxwin/BulkDock/SCRATCH/511021/C50542-P68

>  <fragmenstein_runtime>  (1037) 
23.98553442955017

>  <fragmenstein_outcome>  (1037) 
too moved

>  <fragmenstein_mode>  (1037) 
expansion

>  <fragmenstein_error>  (1037) 


$$$$
C50543-P76
     RDKit          3D

 39 41  0  0  0  0  0  0  0  0999 V2000
   11.0282  -12.4962   15.3131 C   0  0  0  0  0  0  0  0  0  0  0  0
    9.6597  -13.0526   15.0189 C   0  0  0  0  0  0  0  0  0  0  0  0
    8.6682  -12.4129   14.3267 C   0  0  0  0  0  0  0  0  0  0  0  0
    7.4174  -13.1066   14.3332 C   0  0  0  0  0  0  0  0  0  0  0  0
    7.1795  -14.2968   15.3852 C   0  0  0  0  0  0  0  0  0  0  0  0
    5.7758  -16.0751   15.6407 C   0  0  0  0  0  0  0  0  0  0  0  0
    4.0758  -17.3636   15.6153 C   0  0  0  0  0  0  0  0  0  0  0  0
    2.3632  -18.0564   16.6322 C   0  0  0  0  0  0  0  0  0  0  0  0
    2.1217  -17.3205   17.5685 O   0  0  0  0  0  0  0  0  0  0  0  0
    1.1484  -19.2058   16.5244 O   0  0  0  0  0  0  0  0  0  0  0  0
   -0.5388  -19.1599   17.5288 C   0  0  0  0  0  0  0  0  0  0  0  0
   -2.2672  -19.9362   17.7031 C   0  0  0  0  0  0  0  0  0  0  0  0
   -2.8862  -20.6241   16.6192 C   0  0  0  0  0  0  0  0  0  0  0  0
   -3.6992  -21.7950   16.8135 C   0  0  0  0  0  0  0  0  0  0  0  0
   -3.9649  -22.3642   18.0588 C   0  0  0  0  0  0  0  0  0  0  0  0
   -4.6001  -23.5670   18.1696 N   0  0  0  0  0  0  0  0  0  0  0  0
   -4.7840  -24.0955   19.3986 C   0  0  0  0  0  0  0  0  0  0  0  0
   -4.3833  -23.4542   20.5499 C   0  0  0  0  0  0  0  0  0  0  0  0
   -3.7534  -22.2063   20.4249 C   0  0  0  0  0  0  0  0  0  0  0  0
   -3.5072  -21.6269   19.1620 C   0  0  0  0  0  0  0  0  0  0  0  0
   -2.7430  -20.3962   18.9635 C   0  0  0  0  0  0  0  0  0  0  0  0
    9.2919  -14.7633   15.2006 S   0  0  0  0  0  0  0  0  0  0  0  0
   10.9774  -11.4130   15.4662 H   0  0  0  0  0  0  0  0  0  0  0  0
   11.4414  -12.9451   16.2219 H   0  0  0  0  0  0  0  0  0  0  0  0
   11.7069  -12.6993   14.4789 H   0  0  0  0  0  0  0  0  0  0  0  0
    8.8211  -11.4691   13.8142 H   0  0  0  0  0  0  0  0  0  0  0  0
    6.6035  -12.8111   13.6658 H   0  0  0  0  0  0  0  0  0  0  0  0
    6.4731  -16.9672   15.7405 H   0  0  0  0  0  0  0  0  0  0  0  0
    5.2255  -15.7976   16.5780 H   0  0  0  0  0  0  0  0  0  0  0  0
    4.1051  -17.8156   14.6188 H   0  0  0  0  0  0  0  0  0  0  0  0
    3.4891  -16.4793   15.7708 H   0  0  0  0  0  0  0  0  0  0  0  0
   -1.1826  -18.8201   16.7103 H   0  0  0  0  0  0  0  0  0  0  0  0
   -0.4160  -18.4232   18.3225 H   0  0  0  0  0  0  0  0  0  0  0  0
   -2.6616  -20.3545   15.5892 H   0  0  0  0  0  0  0  0  0  0  0  0
   -4.0624  -22.3139   15.9267 H   0  0  0  0  0  0  0  0  0  0  0  0
   -5.2770  -25.0620   19.4245 H   0  0  0  0  0  0  0  0  0  0  0  0
   -4.5450  -23.9031   21.5230 H   0  0  0  0  0  0  0  0  0  0  0  0
   -3.4044  -21.7088   21.3251 H   0  0  0  0  0  0  0  0  0  0  0  0
   -2.4112  -19.8546   19.8241 H   0  0  0  0  0  0  0  0  0  0  0  0
  1  2  1  0
  2  3  2  0
  3  4  1  0
  4  5  2  0
  5  6  1  0
  6  7  1  0
  7  8  1  0
  8  9  2  0
  8 10  1  0
 10 11  1  0
 11 12  1  0
 12 13  2  0
 13 14  1  0
 14 15  2  0
 15 16  1  0
 16 17  2  0
 17 18  1  0
 18 19  2  0
 19 20  1  0
 20 21  2  0
  5 22  1  0
 22  2  1  0
 21 12  1  0
 20 15  1  0
  1 23  1  0
  1 24  1  0
  1 25  1  0
  3 26  1  0
  4 27  1  0
  6 28  1  0
  6 29  1  0
  7 30  1  0
  7 31  1  0
 11 32  1  0
 11 33  1  0
 13 34  1  0
 14 35  1  0
 17 36  1  0
 18 37  1  0
 19 38  1  0
 21 39  1  0
M  END
>  <Energy>  (1038) 
838.21178499617599

>  <compound_id>  (1038) 
50543

>  <target_id>  (1038) 
1

>  <reference_id>  (1038) 
76

>  <inspiration_ids>  (1038) 
[76, 68]

>  <energy_score>  (1038) 
768.108452705513

>  <distance_score>  (1038) 
15.283033981312474

>  <path>  (1038) 
/opt/xchem-fragalysis-2/maxwin/BulkDock/SCRATCH/511021/C50543-P76/C50543-P76.minimised.mol

>  <scratch_subdir>  (1038) 
/opt/xchem-fragalysis-2/maxwin/BulkDock/SCRATCH/511021/C50543-P76

>  <fragmenstein_runtime>  (1038) 
7.732299327850342

>  <fragmenstein_outcome>  (1038) 
too moved

>  <fragmenstein_mode>  (1038) 
expansion

>  <fragmenstein_error>  (1038) 


$$$$
C50543-P68
     RDKit          3D

 39 41  0  0  0  0  0  0  0  0999 V2000
    5.8272  -17.2858   12.3379 C   0  0  0  0  0  0  0  0  0  0  0  0
    5.7033  -18.1629   13.5535 C   0  0  0  0  0  0  0  0  0  0  0  0
    6.6809  -18.5215   14.4521 C   0  0  0  0  0  0  0  0  0  0  0  0
    6.2149  -19.5242   15.3617 C   0  0  0  0  0  0  0  0  0  0  0  0
    4.8712  -19.8765   15.2143 C   0  0  0  0  0  0  0  0  0  0  0  0
    4.0393  -20.8569   16.1172 C   0  0  0  0  0  0  0  0  0  0  0  0
    3.0147  -21.9310   15.5993 C   0  0  0  0  0  0  0  0  0  0  0  0
    2.7139  -23.0247   16.6929 C   0  0  0  0  0  0  0  0  0  0  0  0
    3.5757  -23.3539   17.5089 O   0  0  0  0  0  0  0  0  0  0  0  0
    1.4605  -23.6502   16.6624 O   0  0  0  0  0  0  0  0  0  0  0  0
    1.2806  -24.6533   17.7423 C   0  0  0  0  0  0  0  0  0  0  0  0
    0.0372  -25.6039   17.8879 C   0  0  0  0  0  0  0  0  0  0  0  0
   -1.1641  -25.4894   17.1932 C   0  0  0  0  0  0  0  0  0  0  0  0
   -2.2280  -26.4109   17.4112 C   0  0  0  0  0  0  0  0  0  0  0  0
   -2.1541  -27.4757   18.3105 C   0  0  0  0  0  0  0  0  0  0  0  0
   -3.1825  -28.3421   18.4474 N   0  0  0  0  0  0  0  0  0  0  0  0
   -3.0340  -29.3763   19.3005 C   0  0  0  0  0  0  0  0  0  0  0  0
   -1.9048  -29.5811   20.0670 C   0  0  0  0  0  0  0  0  0  0  0  0
   -0.8570  -28.6741   19.9368 C   0  0  0  0  0  0  0  0  0  0  0  0
   -0.9606  -27.6002   19.0389 C   0  0  0  0  0  0  0  0  0  0  0  0
    0.0991  -26.6681   18.8318 C   0  0  0  0  0  0  0  0  0  0  0  0
    4.2148  -18.9416   13.9406 S   0  0  0  0  0  0  0  0  0  0  0  0
    5.3851  -17.7953   11.4732 H   0  0  0  0  0  0  0  0  0  0  0  0
    6.8759  -17.1067   12.0821 H   0  0  0  0  0  0  0  0  0  0  0  0
    5.3031  -16.3388   12.4527 H   0  0  0  0  0  0  0  0  0  0  0  0
    7.6995  -18.1581   14.4049 H   0  0  0  0  0  0  0  0  0  0  0  0
    6.8637  -19.9956   16.0826 H   0  0  0  0  0  0  0  0  0  0  0  0
    3.5055  -20.2308   16.8427 H   0  0  0  0  0  0  0  0  0  0  0  0
    4.8014  -21.4103   16.6769 H   0  0  0  0  0  0  0  0  0  0  0  0
    3.4202  -22.4463   14.7228 H   0  0  0  0  0  0  0  0  0  0  0  0
    2.0811  -21.4421   15.3176 H   0  0  0  0  0  0  0  0  0  0  0  0
    1.3344  -24.0954   18.6861 H   0  0  0  0  0  0  0  0  0  0  0  0
    2.1437  -25.3290   17.6773 H   0  0  0  0  0  0  0  0  0  0  0  0
   -1.2964  -24.6914   16.4641 H   0  0  0  0  0  0  0  0  0  0  0  0
   -3.1445  -26.2900   16.8355 H   0  0  0  0  0  0  0  0  0  0  0  0
   -3.8834  -30.0476   19.3444 H   0  0  0  0  0  0  0  0  0  0  0  0
   -1.8303  -30.4265   20.7403 H   0  0  0  0  0  0  0  0  0  0  0  0
    0.0471  -28.8203   20.5217 H   0  0  0  0  0  0  0  0  0  0  0  0
    1.0159  -26.7895   19.4106 H   0  0  0  0  0  0  0  0  0  0  0  0
  1  2  1  0
  2  3  2  0
  3  4  1  0
  4  5  2  0
  5  6  1  0
  6  7  1  0
  7  8  1  0
  8  9  2  0
  8 10  1  0
 10 11  1  0
 11 12  1  0
 12 13  2  0
 13 14  1  0
 14 15  2  0
 15 16  1  0
 16 17  2  0
 17 18  1  0
 18 19  2  0
 19 20  1  0
 20 21  2  0
  5 22  1  0
 22  2  1  0
 21 12  1  0
 20 15  1  0
  1 23  1  0
  1 24  1  0
  1 25  1  0
  3 26  1  0
  4 27  1  0
  6 28  1  0
  6 29  1  0
  7 30  1  0
  7 31  1  0
 11 32  1  0
 11 33  1  0
 13 34  1  0
 14 35  1  0
 17 36  1  0
 18 37  1  0
 19 38  1  0
 21 39  1  0
M  END
>  <Energy>  (1039) 
51.891244558829932

>  <compound_id>  (1039) 
50543

>  <target_id>  (1039) 
1

>  <reference_id>  (1039) 
68

>  <inspiration_ids>  (1039) 
[76, 68]

>  <energy_score>  (1039) 
-18.212087731828433

>  <distance_score>  (1039) 
15.726172859180119

>  <path>  (1039) 
/opt/xchem-fragalysis-2/maxwin/BulkDock/SCRATCH/511021/C50543-P68/C50543-P68.minimised.mol

>  <scratch_subdir>  (1039) 
/opt/xchem-fragalysis-2/maxwin/BulkDock/SCRATCH/511021/C50543-P68

>  <fragmenstein_runtime>  (1039) 
22.712528467178345

>  <fragmenstein_outcome>  (1039) 
too moved

>  <fragmenstein_mode>  (1039) 
expansion

>  <fragmenstein_error>  (1039) 


$$$$
C50544-P76
     RDKit          3D

 33 35  0  0  0  0  0  0  0  0999 V2000
   -1.8372  -16.6219   20.4269 C   0  0  0  0  0  0  0  0  0  0  0  0
   -2.4425  -17.9760   20.1759 C   0  0  0  0  0  0  0  0  0  0  0  0
   -2.4147  -18.7562   19.0388 C   0  0  0  0  0  0  0  0  0  0  0  0
   -2.9769  -20.0831   19.2399 C   0  0  0  0  0  0  0  0  0  0  0  0
   -3.4680  -20.3129   20.5220 C   0  0  0  0  0  0  0  0  0  0  0  0
   -4.1070  -21.5158   21.2283 C   0  0  0  0  0  0  0  0  0  0  0  0
   -4.6785  -21.3600   22.3150 O   0  0  0  0  0  0  0  0  0  0  0  0
   -4.0914  -23.0152   20.7087 C   0  0  0  0  0  0  0  0  0  0  0  0
   -4.5463  -24.0616   21.4694 C   0  0  0  0  0  0  0  0  0  0  0  0
   -4.5231  -25.5615   21.2698 C   0  0  0  0  0  0  0  0  0  0  0  0
   -4.6307  -26.1897   20.0294 C   0  0  0  0  0  0  0  0  0  0  0  0
   -4.6746  -27.6052   19.9211 C   0  0  0  0  0  0  0  0  0  0  0  0
   -4.6369  -28.4592   21.0211 C   0  0  0  0  0  0  0  0  0  0  0  0
   -4.7325  -29.7981   20.8548 N   0  0  0  0  0  0  0  0  0  0  0  0
   -4.7340  -30.5860   21.9508 C   0  0  0  0  0  0  0  0  0  0  0  0
   -4.6019  -30.0961   23.2331 C   0  0  0  0  0  0  0  0  0  0  0  0
   -4.4743  -28.7155   23.3968 C   0  0  0  0  0  0  0  0  0  0  0  0
   -4.5124  -27.8556   22.2833 C   0  0  0  0  0  0  0  0  0  0  0  0
   -4.4605  -26.4267   22.3912 C   0  0  0  0  0  0  0  0  0  0  0  0
   -3.2874  -18.8023   21.4299 S   0  0  0  0  0  0  0  0  0  0  0  0
   -0.7637  -16.7442   20.5934 H   0  0  0  0  0  0  0  0  0  0  0  0
   -2.2664  -16.1553   21.3202 H   0  0  0  0  0  0  0  0  0  0  0  0
   -2.0387  -15.9556   19.5843 H   0  0  0  0  0  0  0  0  0  0  0  0
   -1.9536  -18.4569   18.1098 H   0  0  0  0  0  0  0  0  0  0  0  0
   -2.9843  -20.8380   18.4626 H   0  0  0  0  0  0  0  0  0  0  0  0
   -3.6183  -23.1610   19.7460 H   0  0  0  0  0  0  0  0  0  0  0  0
   -4.9639  -23.7975   22.4444 H   0  0  0  0  0  0  0  0  0  0  0  0
   -4.7023  -25.5997   19.1187 H   0  0  0  0  0  0  0  0  0  0  0  0
   -4.7696  -28.0509   18.9322 H   0  0  0  0  0  0  0  0  0  0  0  0
   -4.8436  -31.6485   21.7570 H   0  0  0  0  0  0  0  0  0  0  0  0
   -4.6000  -30.7642   24.0862 H   0  0  0  0  0  0  0  0  0  0  0  0
   -4.3758  -28.3078   24.3997 H   0  0  0  0  0  0  0  0  0  0  0  0
   -4.3801  -25.9886   23.3861 H   0  0  0  0  0  0  0  0  0  0  0  0
  1  2  1  0
  2  3  2  0
  3  4  1  0
  4  5  2  0
  5  6  1  0
  6  7  2  0
  6  8  1  0
  8  9  2  3
  9 10  1  0
 10 11  2  0
 11 12  1  0
 12 13  2  0
 13 14  1  0
 14 15  2  0
 15 16  1  0
 16 17  2  0
 17 18  1  0
 18 19  2  0
  5 20  1  0
 20  2  1  0
 19 10  1  0
 18 13  1  0
  1 21  1  0
  1 22  1  0
  1 23  1  0
  3 24  1  0
  4 25  1  0
  8 26  1  0
  9 27  1  0
 11 28  1  0
 12 29  1  0
 15 30  1  0
 16 31  1  0
 17 32  1  0
 19 33  1  0
M  END
>  <Energy>  (1040) 
78.52921332139347

>  <compound_id>  (1040) 
50544

>  <target_id>  (1040) 
1

>  <reference_id>  (1040) 
76

>  <inspiration_ids>  (1040) 
[76, 68]

>  <energy_score>  (1040) 
-21.247020212280063

>  <distance_score>  (1040) 
16.630564581943993

>  <path>  (1040) 
/opt/xchem-fragalysis-2/maxwin/BulkDock/SCRATCH/511021/C50544-P76/C50544-P76.minimised.mol

>  <scratch_subdir>  (1040) 
/opt/xchem-fragalysis-2/maxwin/BulkDock/SCRATCH/511021/C50544-P76

>  <fragmenstein_runtime>  (1040) 
5.726611852645874

>  <fragmenstein_outcome>  (1040) 
too moved

>  <fragmenstein_mode>  (1040) 
expansion

>  <fragmenstein_error>  (1040) 


$$$$
C50544-P68
     RDKit          3D

 33 35  0  0  0  0  0  0  0  0999 V2000
    5.2760  -18.1185   15.2792 C   0  0  0  0  0  0  0  0  0  0  0  0
    4.1898  -19.0101   15.8419 C   0  0  0  0  0  0  0  0  0  0  0  0
    3.1211  -18.6374   16.6212 C   0  0  0  0  0  0  0  0  0  0  0  0
    2.3073  -19.7553   17.0733 C   0  0  0  0  0  0  0  0  0  0  0  0
    2.7103  -20.9952   16.6144 C   0  0  0  0  0  0  0  0  0  0  0  0
    2.1700  -22.4167   16.8376 C   0  0  0  0  0  0  0  0  0  0  0  0
    2.8263  -23.3874   16.4364 O   0  0  0  0  0  0  0  0  0  0  0  0
    0.7664  -22.8066   17.5456 C   0  0  0  0  0  0  0  0  0  0  0  0
    0.4209  -24.1133   17.7689 C   0  0  0  0  0  0  0  0  0  0  0  0
   -0.7580  -24.8680   18.3336 C   0  0  0  0  0  0  0  0  0  0  0  0
   -2.0906  -24.4590   18.2770 C   0  0  0  0  0  0  0  0  0  0  0  0
   -3.1457  -25.3475   18.6109 C   0  0  0  0  0  0  0  0  0  0  0  0
   -2.9226  -26.6689   18.9785 C   0  0  0  0  0  0  0  0  0  0  0  0
   -3.9521  -27.5189   19.1417 N   0  0  0  0  0  0  0  0  0  0  0  0
   -3.6544  -28.8156   19.3560 C   0  0  0  0  0  0  0  0  0  0  0  0
   -2.3679  -29.2869   19.5501 C   0  0  0  0  0  0  0  0  0  0  0  0
   -1.3145  -28.3990   19.4311 C   0  0  0  0  0  0  0  0  0  0  0  0
   -1.5820  -27.0748   19.0955 C   0  0  0  0  0  0  0  0  0  0  0  0
   -0.5315  -26.1808   18.7967 C   0  0  0  0  0  0  0  0  0  0  0  0
    4.1629  -20.7229   15.6293 S   0  0  0  0  0  0  0  0  0  0  0  0
    6.2629  -18.4795   15.5845 H   0  0  0  0  0  0  0  0  0  0  0  0
    5.2233  -18.1069   14.1863 H   0  0  0  0  0  0  0  0  0  0  0  0
    5.1564  -17.0961   15.6435 H   0  0  0  0  0  0  0  0  0  0  0  0
    2.9469  -17.6056   16.9046 H   0  0  0  0  0  0  0  0  0  0  0  0
    1.4630  -19.6566   17.7404 H   0  0  0  0  0  0  0  0  0  0  0  0
    0.1374  -21.9696   17.8152 H   0  0  0  0  0  0  0  0  0  0  0  0
    1.1853  -24.8270   17.4434 H   0  0  0  0  0  0  0  0  0  0  0  0
   -2.3415  -23.4641   17.9170 H   0  0  0  0  0  0  0  0  0  0  0  0
   -4.1736  -25.0047   18.5117 H   0  0  0  0  0  0  0  0  0  0  0  0
   -4.5129  -29.4800   19.3557 H   0  0  0  0  0  0  0  0  0  0  0  0
   -2.1691  -30.3294   19.7393 H   0  0  0  0  0  0  0  0  0  0  0  0
   -0.2954  -28.7595   19.5345 H   0  0  0  0  0  0  0  0  0  0  0  0
    0.4945  -26.5449   18.8557 H   0  0  0  0  0  0  0  0  0  0  0  0
  1  2  1  0
  2  3  2  0
  3  4  1  0
  4  5  2  0
  5  6  1  0
  6  7  2  0
  6  8  1  0
  8  9  2  3
  9 10  1  0
 10 11  2  0
 11 12  1  0
 12 13  2  0
 13 14  1  0
 14 15  2  0
 15 16  1  0
 16 17  2  0
 17 18  1  0
 18 19  2  0
  5 20  1  0
 20  2  1  0
 19 10  1  0
 18 13  1  0
  1 21  1  0
  1 22  1  0
  1 23  1  0
  3 24  1  0
  4 25  1  0
  8 26  1  0
  9 27  1  0
 11 28  1  0
 12 29  1  0
 15 30  1  0
 16 31  1  0
 17 32  1  0
 19 33  1  0
M  END
>  <Energy>  (1041) 
84.769174523969738

>  <compound_id>  (1041) 
50544

>  <target_id>  (1041) 
1

>  <reference_id>  (1041) 
68

>  <inspiration_ids>  (1041) 
[76, 68]

>  <energy_score>  (1041) 
-15.00705900969615

>  <distance_score>  (1041) 
16.266397629898783

>  <path>  (1041) 
/opt/xchem-fragalysis-2/maxwin/BulkDock/SCRATCH/511021/C50544-P68/C50544-P68.minimised.mol

>  <scratch_subdir>  (1041) 
/opt/xchem-fragalysis-2/maxwin/BulkDock/SCRATCH/511021/C50544-P68

>  <fragmenstein_runtime>  (1041) 
9.691192865371704

>  <fragmenstein_outcome>  (1041) 
too moved

>  <fragmenstein_mode>  (1041) 
expansion

>  <fragmenstein_error>  (1041) 


$$$$
C50546-P76
     RDKit          3D

 39 41  0  0  0  0  0  0  0  0999 V2000
    8.0261  -17.1183   14.6951 C   0  0  0  0  0  0  0  0  0  0  0  0
    6.9149  -18.1500   14.7289 C   0  0  0  0  0  0  0  0  0  0  0  0
    5.6427  -18.0498   14.2111 C   0  0  0  0  0  0  0  0  0  0  0  0
    4.8139  -19.2058   14.4804 C   0  0  0  0  0  0  0  0  0  0  0  0
    5.4509  -20.2480   15.1528 C   0  0  0  0  0  0  0  0  0  0  0  0
    4.8927  -21.7639   15.5040 C   0  0  0  0  0  0  0  0  0  0  0  0
    5.9276  -22.5884   16.2682 C   0  0  0  0  0  0  0  0  0  0  0  0
    3.4685  -21.9091   16.2169 C   0  0  0  0  0  0  0  0  0  0  0  0
    2.7294  -20.9576   16.4345 O   0  0  0  0  0  0  0  0  0  0  0  0
    3.0825  -23.2478   16.5255 O   0  0  0  0  0  0  0  0  0  0  0  0
    1.7847  -23.4288   17.2683 C   0  0  0  0  0  0  0  0  0  0  0  0
    1.1353  -24.8453   17.6322 C   0  0  0  0  0  0  0  0  0  0  0  0
    1.4997  -26.0622   17.0575 C   0  0  0  0  0  0  0  0  0  0  0  0
    0.8450  -27.2861   17.4077 C   0  0  0  0  0  0  0  0  0  0  0  0
   -0.2025  -27.3798   18.3268 C   0  0  0  0  0  0  0  0  0  0  0  0
   -0.7775  -28.5791   18.6159 N   0  0  0  0  0  0  0  0  0  0  0  0
   -1.7990  -28.6087   19.4997 C   0  0  0  0  0  0  0  0  0  0  0  0
   -2.2843  -27.4787   20.1247 C   0  0  0  0  0  0  0  0  0  0  0  0
   -1.6803  -26.2505   19.8280 C   0  0  0  0  0  0  0  0  0  0  0  0
   -0.6125  -26.1704   18.9126 C   0  0  0  0  0  0  0  0  0  0  0  0
    0.0517  -24.9344   18.5609 C   0  0  0  0  0  0  0  0  0  0  0  0
    7.1271  -19.7238   15.4205 S   0  0  0  0  0  0  0  0  0  0  0  0
    7.6094  -16.1078   14.6528 H   0  0  0  0  0  0  0  0  0  0  0  0
    8.6463  -17.2752   13.8070 H   0  0  0  0  0  0  0  0  0  0  0  0
    8.6604  -17.1949   15.5823 H   0  0  0  0  0  0  0  0  0  0  0  0
    5.2895  -17.1945   13.6530 H   0  0  0  0  0  0  0  0  0  0  0  0
    3.7769  -19.2731   14.1633 H   0  0  0  0  0  0  0  0  0  0  0  0
    4.7520  -22.2158   14.5113 H   0  0  0  0  0  0  0  0  0  0  0  0
    5.5834  -23.6163   16.4231 H   0  0  0  0  0  0  0  0  0  0  0  0
    6.1259  -22.1613   17.2556 H   0  0  0  0  0  0  0  0  0  0  0  0
    6.8745  -22.6505   15.7222 H   0  0  0  0  0  0  0  0  0  0  0  0
    1.9487  -22.9360   18.2315 H   0  0  0  0  0  0  0  0  0  0  0  0
    1.0207  -22.8884   16.6975 H   0  0  0  0  0  0  0  0  0  0  0  0
    2.3039  -26.0919   16.3241 H   0  0  0  0  0  0  0  0  0  0  0  0
    1.1827  -28.2037   16.9277 H   0  0  0  0  0  0  0  0  0  0  0  0
   -2.2245  -29.5891   19.6897 H   0  0  0  0  0  0  0  0  0  0  0  0
   -3.1079  -27.5410   20.8266 H   0  0  0  0  0  0  0  0  0  0  0  0
   -2.0474  -25.3492   20.3133 H   0  0  0  0  0  0  0  0  0  0  0  0
   -0.2949  -24.0115   19.0293 H   0  0  0  0  0  0  0  0  0  0  0  0
  1  2  1  0
  2  3  2  0
  3  4  1  0
  4  5  2  0
  5  6  1  0
  6  7  1  0
  6  8  1  0
  8  9  2  0
  8 10  1  0
 10 11  1  0
 11 12  1  0
 12 13  2  0
 13 14  1  0
 14 15  2  0
 15 16  1  0
 16 17  2  0
 17 18  1  0
 18 19  2  0
 19 20  1  0
 20 21  2  0
  5 22  1  0
 22  2  1  0
 21 12  1  0
 20 15  1  0
  1 23  1  0
  1 24  1  0
  1 25  1  0
  3 26  1  0
  4 27  1  0
  6 28  1  0
  7 29  1  0
  7 30  1  0
  7 31  1  0
 11 32  1  0
 11 33  1  0
 13 34  1  0
 14 35  1  0
 17 36  1  0
 18 37  1  0
 19 38  1  0
 21 39  1  0
M  END
>  <Energy>  (1042) 
84.353335351863436

>  <compound_id>  (1042) 
50546

>  <target_id>  (1042) 
1

>  <reference_id>  (1042) 
76

>  <inspiration_ids>  (1042) 
[76, 68]

>  <energy_score>  (1042) 
-13.638875299181905

>  <distance_score>  (1042) 
16.18492916345299

>  <path>  (1042) 
/opt/xchem-fragalysis-2/maxwin/BulkDock/SCRATCH/511021/C50546-P76/C50546-P76.minimised.mol

>  <scratch_subdir>  (1042) 
/opt/xchem-fragalysis-2/maxwin/BulkDock/SCRATCH/511021/C50546-P76

>  <fragmenstein_runtime>  (1042) 
11.079195976257324

>  <fragmenstein_outcome>  (1042) 
too moved

>  <fragmenstein_mode>  (1042) 
expansion

>  <fragmenstein_error>  (1042) 


$$$$
C50546-P68
     RDKit          3D

 39 41  0  0  0  0  0  0  0  0999 V2000
    1.5016  -20.6240   17.6229 C   0  0  0  0  0  0  0  0  0  0  0  0
    0.6249  -21.4918   18.5164 C   0  0  0  0  0  0  0  0  0  0  0  0
    0.4358  -21.3849   19.8762 C   0  0  0  0  0  0  0  0  0  0  0  0
   -0.4715  -22.3692   20.3998 C   0  0  0  0  0  0  0  0  0  0  0  0
   -0.9258  -23.3251   19.4811 C   0  0  0  0  0  0  0  0  0  0  0  0
   -1.6520  -24.7671   19.9043 C   0  0  0  0  0  0  0  0  0  0  0  0
   -0.5675  -25.8496   19.8689 C   0  0  0  0  0  0  0  0  0  0  0  0
   -2.9762  -25.3846   19.2427 C   0  0  0  0  0  0  0  0  0  0  0  0
   -3.4308  -25.0584   18.1540 O   0  0  0  0  0  0  0  0  0  0  0  0
   -3.5639  -26.4487   20.0204 O   0  0  0  0  0  0  0  0  0  0  0  0
   -4.6184  -27.3815   19.4108 C   0  0  0  0  0  0  0  0  0  0  0  0
   -5.6612  -28.2582   20.3084 C   0  0  0  0  0  0  0  0  0  0  0  0
   -6.0017  -27.7477   21.8680 C   0  0  0  0  0  0  0  0  0  0  0  0
   -7.2588  -28.3938   22.8207 C   0  0  0  0  0  0  0  0  0  0  0  0
   -8.5494  -29.4502   22.0827 C   0  0  0  0  0  0  0  0  0  0  0  0
   -9.6449  -30.5762   22.8822 N   0  0  0  0  0  0  0  0  0  0  0  0
  -10.4788  -31.6026   22.4517 C   0  0  0  0  0  0  0  0  0  0  0  0
  -10.7528  -31.6297   21.1708 C   0  0  0  0  0  0  0  0  0  0  0  0
   -9.7867  -30.9348   20.4007 C   0  0  0  0  0  0  0  0  0  0  0  0
   -8.2229  -30.1329   20.4137 C   0  0  0  0  0  0  0  0  0  0  0  0
   -6.6631  -29.5415   19.5968 C   0  0  0  0  0  0  0  0  0  0  0  0
   -0.2698  -22.8702   17.9233 S   0  0  0  0  0  0  0  0  0  0  0  0
    1.6138  -19.6248   18.0433 H   0  0  0  0  0  0  0  0  0  0  0  0
    1.0547  -20.5278   16.6286 H   0  0  0  0  0  0  0  0  0  0  0  0
    2.4901  -21.0813   17.5212 H   0  0  0  0  0  0  0  0  0  0  0  0
    0.9271  -20.6586   20.5065 H   0  0  0  0  0  0  0  0  0  0  0  0
   -0.6981  -22.4404   21.4570 H   0  0  0  0  0  0  0  0  0  0  0  0
   -1.9402  -24.5955   20.9524 H   0  0  0  0  0  0  0  0  0  0  0  0
    0.3183  -25.5438   20.4359 H   0  0  0  0  0  0  0  0  0  0  0  0
   -0.2552  -26.0550   18.8391 H   0  0  0  0  0  0  0  0  0  0  0  0
   -0.9297  -26.7906   20.2959 H   0  0  0  0  0  0  0  0  0  0  0  0
   -4.0508  -28.1060   18.8185 H   0  0  0  0  0  0  0  0  0  0  0  0
   -5.2403  -26.7662   18.7529 H   0  0  0  0  0  0  0  0  0  0  0  0
   -5.3582  -26.9917   22.3188 H   0  0  0  0  0  0  0  0  0  0  0  0
   -7.3683  -28.1045   23.8621 H   0  0  0  0  0  0  0  0  0  0  0  0
  -10.9585  -32.2392   23.1773 H   0  0  0  0  0  0  0  0  0  0  0  0
  -11.5906  -32.1485   20.7294 H   0  0  0  0  0  0  0  0  0  0  0  0
  -10.3536  -30.7641   19.4701 H   0  0  0  0  0  0  0  0  0  0  0  0
   -6.3799  -29.9280   18.6190 H   0  0  0  0  0  0  0  0  0  0  0  0
  1  2  1  0
  2  3  2  0
  3  4  1  0
  4  5  2  0
  5  6  1  0
  6  7  1  0
  6  8  1  0
  8  9  2  0
  8 10  1  0
 10 11  1  0
 11 12  1  0
 12 13  2  0
 13 14  1  0
 14 15  2  0
 15 16  1  0
 16 17  2  0
 17 18  1  0
 18 19  2  0
 19 20  1  0
 20 21  2  0
  5 22  1  0
 22  2  1  0
 21 12  1  0
 20 15  1  0
  1 23  1  0
  1 24  1  0
  1 25  1  0
  3 26  1  0
  4 27  1  0
  6 28  1  0
  7 29  1  0
  7 30  1  0
  7 31  1  0
 11 32  1  0
 11 33  1  0
 13 34  1  0
 14 35  1  0
 17 36  1  0
 18 37  1  0
 19 38  1  0
 21 39  1  0
M  END
>  <Energy>  (1043) 
466.53480810532466

>  <compound_id>  (1043) 
50546

>  <target_id>  (1043) 
1

>  <reference_id>  (1043) 
68

>  <inspiration_ids>  (1043) 
[76, 68]

>  <energy_score>  (1043) 
368.54259745427436

>  <distance_score>  (1043) 
16.10037792273396

>  <path>  (1043) 
/opt/xchem-fragalysis-2/maxwin/BulkDock/SCRATCH/511021/C50546-P68/C50546-P68.minimised.mol

>  <scratch_subdir>  (1043) 
/opt/xchem-fragalysis-2/maxwin/BulkDock/SCRATCH/511021/C50546-P68

>  <fragmenstein_runtime>  (1043) 
23.359670162200928

>  <fragmenstein_outcome>  (1043) 
too moved

>  <fragmenstein_mode>  (1043) 
expansion

>  <fragmenstein_error>  (1043) 


$$$$
C50547-P76
     RDKit          3D

 41 43  0  0  0  0  0  0  0  0999 V2000
    7.9696   -8.6863   20.7053 C   0  0  0  0  0  0  0  0  0  0  0  0
    7.2532   -9.9934   20.6073 C   0  0  0  0  0  0  0  0  0  0  0  0
    7.4021  -11.0901   21.3725 C   0  0  0  0  0  0  0  0  0  0  0  0
    6.6021  -12.1877   20.8740 C   0  0  0  0  0  0  0  0  0  0  0  0
    5.4019  -12.1558   20.1548 C   0  0  0  0  0  0  0  0  0  0  0  0
    4.0872  -13.3376   19.4049 C   0  0  0  0  0  0  0  0  0  0  0  0
    2.5509  -14.7388   19.6220 C   0  0  0  0  0  0  0  0  0  0  0  0
    2.5890  -14.9183   18.1985 C   0  0  0  0  0  0  0  0  0  0  0  0
    1.0204  -15.8202   20.5194 N   0  0  0  0  0  0  0  0  0  0  0  0
   -0.3395  -17.5122   20.4126 S   0  0  0  0  0  0  0  0  0  0  0  0
   -0.3031  -18.2073   21.6621 O   0  0  0  0  0  0  0  0  0  0  0  0
    0.2492  -18.0892   19.2321 O   0  0  0  0  0  0  0  0  0  0  0  0
   -2.2897  -18.1172   19.8033 C   0  0  0  0  0  0  0  0  0  0  0  0
   -2.2389  -19.0622   18.7344 C   0  0  0  0  0  0  0  0  0  0  0  0
   -2.8907  -20.3555   18.7186 C   0  0  0  0  0  0  0  0  0  0  0  0
   -3.6257  -20.8609   19.7795 C   0  0  0  0  0  0  0  0  0  0  0  0
   -4.0958  -22.1420   19.7708 N   0  0  0  0  0  0  0  0  0  0  0  0
   -4.7967  -22.5798   20.8356 C   0  0  0  0  0  0  0  0  0  0  0  0
   -5.0799  -21.7701   21.9146 C   0  0  0  0  0  0  0  0  0  0  0  0
   -4.5987  -20.4478   21.9020 C   0  0  0  0  0  0  0  0  0  0  0  0
   -3.8188  -19.9566   20.8325 C   0  0  0  0  0  0  0  0  0  0  0  0
   -3.1937  -18.6150   20.7953 C   0  0  0  0  0  0  0  0  0  0  0  0
    6.2867  -10.4277   19.2936 S   0  0  0  0  0  0  0  0  0  0  0  0
    7.3851   -7.8780   20.2581 H   0  0  0  0  0  0  0  0  0  0  0  0
    8.1280   -8.4243   21.7573 H   0  0  0  0  0  0  0  0  0  0  0  0
    8.9505   -8.7631   20.2331 H   0  0  0  0  0  0  0  0  0  0  0  0
    8.1856  -11.1911   22.1142 H   0  0  0  0  0  0  0  0  0  0  0  0
    7.0137  -13.1125   21.0753 H   0  0  0  0  0  0  0  0  0  0  0  0
    3.7776  -12.7387   18.5363 H   0  0  0  0  0  0  0  0  0  0  0  0
    4.8801  -13.9962   19.0265 H   0  0  0  0  0  0  0  0  0  0  0  0
    2.4552  -14.1721   20.5186 H   0  0  0  0  0  0  0  0  0  0  0  0
    3.6058  -14.8036   17.8638 H   0  0  0  0  0  0  0  0  0  0  0  0
    2.5820  -15.9395   17.9455 H   0  0  0  0  0  0  0  0  0  0  0  0
    1.8104  -14.3509   17.7043 H   0  0  0  0  0  0  0  0  0  0  0  0
    0.7760  -16.0104   19.5469 H   0  0  0  0  0  0  0  0  0  0  0  0
   -1.5272  -18.9218   17.9258 H   0  0  0  0  0  0  0  0  0  0  0  0
   -2.7016  -21.0103   17.8673 H   0  0  0  0  0  0  0  0  0  0  0  0
   -5.1373  -23.6087   20.7843 H   0  0  0  0  0  0  0  0  0  0  0  0
   -5.6577  -22.1433   22.7525 H   0  0  0  0  0  0  0  0  0  0  0  0
   -4.8070  -19.8071   22.7558 H   0  0  0  0  0  0  0  0  0  0  0  0
   -3.5299  -17.9235   21.5517 H   0  0  0  0  0  0  0  0  0  0  0  0
  1  2  1  0
  2  3  2  0
  3  4  1  0
  4  5  2  0
  5  6  1  0
  6  7  1  0
  7  8  1  0
  7  9  1  0
  9 10  1  0
 10 11  2  0
 10 12  2  0
 10 13  1  0
 13 14  2  0
 14 15  1  0
 15 16  2  0
 16 17  1  0
 17 18  2  0
 18 19  1  0
 19 20  2  0
 20 21  1  0
 21 22  2  0
  5 23  1  0
 23  2  1  0
 22 13  1  0
 21 16  1  0
  1 24  1  0
  1 25  1  0
  1 26  1  0
  3 27  1  0
  4 28  1  0
  6 29  1  0
  6 30  1  0
  7 31  1  0
  8 32  1  0
  8 33  1  0
  8 34  1  0
  9 35  1  0
 14 36  1  0
 15 37  1  0
 18 38  1  0
 19 39  1  0
 20 40  1  0
 22 41  1  0
M  END
>  <Energy>  (1044) 
650.71056313672261

>  <compound_id>  (1044) 
50547

>  <target_id>  (1044) 
1

>  <reference_id>  (1044) 
76

>  <inspiration_ids>  (1044) 
[76, 68]

>  <energy_score>  (1044) 
617.6036330016805

>  <distance_score>  (1044) 
15.961463607194808

>  <path>  (1044) 
/opt/xchem-fragalysis-2/maxwin/BulkDock/SCRATCH/511021/C50547-P76/C50547-P76.minimised.mol

>  <scratch_subdir>  (1044) 
/opt/xchem-fragalysis-2/maxwin/BulkDock/SCRATCH/511021/C50547-P76

>  <fragmenstein_runtime>  (1044) 
8.569988489151001

>  <fragmenstein_outcome>  (1044) 
too moved

>  <fragmenstein_mode>  (1044) 
expansion

>  <fragmenstein_error>  (1044) 


$$$$
C50547-P68
     RDKit          3D

 41 43  0  0  0  0  0  0  0  0999 V2000
    3.2202  -19.0041   16.4100 C   0  0  0  0  0  0  0  0  0  0  0  0
    2.5736  -20.3300   16.7994 C   0  0  0  0  0  0  0  0  0  0  0  0
    2.7208  -21.5429   16.1627 C   0  0  0  0  0  0  0  0  0  0  0  0
    1.8645  -22.5874   16.6983 C   0  0  0  0  0  0  0  0  0  0  0  0
    1.0510  -22.2053   17.7592 C   0  0  0  0  0  0  0  0  0  0  0  0
    0.0510  -23.0708   18.7104 C   0  0  0  0  0  0  0  0  0  0  0  0
   -1.1374  -24.0603   18.1563 C   0  0  0  0  0  0  0  0  0  0  0  0
   -2.1600  -23.2791   17.3537 C   0  0  0  0  0  0  0  0  0  0  0  0
   -1.8331  -24.8915   19.3180 N   0  0  0  0  0  0  0  0  0  0  0  0
   -3.4518  -25.4665   19.5428 S   0  0  0  0  0  0  0  0  0  0  0  0
   -3.6003  -25.6876   20.9721 O   0  0  0  0  0  0  0  0  0  0  0  0
   -4.4006  -24.6217   18.8554 O   0  0  0  0  0  0  0  0  0  0  0  0
   -3.6200  -27.1017   18.8491 C   0  0  0  0  0  0  0  0  0  0  0  0
   -3.0440  -28.1856   19.4994 C   0  0  0  0  0  0  0  0  0  0  0  0
   -3.3488  -29.4836   19.0744 C   0  0  0  0  0  0  0  0  0  0  0  0
   -4.2294  -29.7463   18.0250 C   0  0  0  0  0  0  0  0  0  0  0  0
   -4.4741  -31.0085   17.6204 N   0  0  0  0  0  0  0  0  0  0  0  0
   -5.2867  -31.2083   16.5646 C   0  0  0  0  0  0  0  0  0  0  0  0
   -5.9054  -30.1902   15.8788 C   0  0  0  0  0  0  0  0  0  0  0  0
   -5.6616  -28.8863   16.2948 C   0  0  0  0  0  0  0  0  0  0  0  0
   -4.8156  -28.6425   17.3847 C   0  0  0  0  0  0  0  0  0  0  0  0
   -4.5313  -27.3315   17.8139 C   0  0  0  0  0  0  0  0  0  0  0  0
    1.4524  -20.5337   18.1028 S   0  0  0  0  0  0  0  0  0  0  0  0
    2.8379  -18.6990   15.4311 H   0  0  0  0  0  0  0  0  0  0  0  0
    3.0080  -18.2084   17.1245 H   0  0  0  0  0  0  0  0  0  0  0  0
    4.3006  -19.1311   16.3030 H   0  0  0  0  0  0  0  0  0  0  0  0
    3.3726  -21.6896   15.3103 H   0  0  0  0  0  0  0  0  0  0  0  0
    1.8563  -23.5938   16.2973 H   0  0  0  0  0  0  0  0  0  0  0  0
   -0.4116  -22.3703   19.4161 H   0  0  0  0  0  0  0  0  0  0  0  0
    0.7221  -23.7012   19.3109 H   0  0  0  0  0  0  0  0  0  0  0  0
   -0.6576  -24.8036   17.5079 H   0  0  0  0  0  0  0  0  0  0  0  0
   -1.6758  -22.6632   16.5897 H   0  0  0  0  0  0  0  0  0  0  0  0
   -2.7530  -22.6247   17.9965 H   0  0  0  0  0  0  0  0  0  0  0  0
   -2.8471  -23.9566   16.8368 H   0  0  0  0  0  0  0  0  0  0  0  0
   -1.3603  -24.8100   20.2200 H   0  0  0  0  0  0  0  0  0  0  0  0
   -2.3793  -28.0403   20.3474 H   0  0  0  0  0  0  0  0  0  0  0  0
   -2.8654  -30.3042   19.5925 H   0  0  0  0  0  0  0  0  0  0  0  0
   -5.4154  -32.2405   16.2593 H   0  0  0  0  0  0  0  0  0  0  0  0
   -6.5602  -30.3952   15.0410 H   0  0  0  0  0  0  0  0  0  0  0  0
   -6.1476  -28.0645   15.7754 H   0  0  0  0  0  0  0  0  0  0  0  0
   -5.0305  -26.4903   17.3352 H   0  0  0  0  0  0  0  0  0  0  0  0
  1  2  1  0
  2  3  2  0
  3  4  1  0
  4  5  2  0
  5  6  1  0
  6  7  1  0
  7  8  1  0
  7  9  1  0
  9 10  1  0
 10 11  2  0
 10 12  2  0
 10 13  1  0
 13 14  2  0
 14 15  1  0
 15 16  2  0
 16 17  1  0
 17 18  2  0
 18 19  1  0
 19 20  2  0
 20 21  1  0
 21 22  2  0
  5 23  1  0
 23  2  1  0
 22 13  1  0
 21 16  1  0
  1 24  1  0
  1 25  1  0
  1 26  1  0
  3 27  1  0
  4 28  1  0
  6 29  1  0
  6 30  1  0
  7 31  1  0
  8 32  1  0
  8 33  1  0
  8 34  1  0
  9 35  1  0
 14 36  1  0
 15 37  1  0
 18 38  1  0
 19 39  1  0
 20 40  1  0
 22 41  1  0
M  END
>  <Energy>  (1045) 
29.335986109394234

>  <compound_id>  (1045) 
50547

>  <target_id>  (1045) 
1

>  <reference_id>  (1045) 
68

>  <inspiration_ids>  (1045) 
[76, 68]

>  <energy_score>  (1045) 
-3.77094402564353

>  <distance_score>  (1045) 
15.916914252039357

>  <path>  (1045) 
/opt/xchem-fragalysis-2/maxwin/BulkDock/SCRATCH/511021/C50547-P68/C50547-P68.minimised.mol

>  <scratch_subdir>  (1045) 
/opt/xchem-fragalysis-2/maxwin/BulkDock/SCRATCH/511021/C50547-P68

>  <fragmenstein_runtime>  (1045) 
20.186015844345093

>  <fragmenstein_outcome>  (1045) 
too moved

>  <fragmenstein_mode>  (1045) 
expansion

>  <fragmenstein_error>  (1045) 


$$$$
C50548-P76
     RDKit          3D

 39 41  0  0  0  0  0  0  0  0999 V2000
   11.4727  -13.1388   16.9778 C   0  0  0  0  0  0  0  0  0  0  0  0
   10.8788  -13.6954   18.2266 C   0  0  0  0  0  0  0  0  0  0  0  0
   10.4996  -13.0277   19.3692 C   0  0  0  0  0  0  0  0  0  0  0  0
    9.9886  -13.9275   20.3556 C   0  0  0  0  0  0  0  0  0  0  0  0
    9.9428  -15.2560   19.9382 C   0  0  0  0  0  0  0  0  0  0  0  0
    9.4896  -16.4237   20.7458 C   0  0  0  0  0  0  0  0  0  0  0  0
    9.6219  -16.4124   21.9760 O   0  0  0  0  0  0  0  0  0  0  0  0
    8.7743  -17.6876   20.1142 C   0  0  0  0  0  0  0  0  0  0  0  0
    7.7467  -18.6311   21.0637 C   0  0  0  0  0  0  0  0  0  0  0  0
    7.6207  -20.1508   20.6694 C   0  0  0  0  0  0  0  0  0  0  0  0
    8.4713  -20.5974   19.8896 O   0  0  0  0  0  0  0  0  0  0  0  0
    6.6441  -21.0429   21.1003 O   0  0  0  0  0  0  0  0  0  0  0  0
    5.4150  -20.9919   21.9602 C   0  0  0  0  0  0  0  0  0  0  0  0
    4.3316  -22.2429   21.9589 C   0  0  0  0  0  0  0  0  0  0  0  0
    3.1034  -21.9641   22.7568 C   0  0  0  0  0  0  0  0  0  0  0  0
    2.1311  -22.8830   22.9219 C   0  0  0  0  0  0  0  0  0  0  0  0
    2.2271  -24.1337   22.3307 N   0  0  0  0  0  0  0  0  0  0  0  0
    1.3212  -25.1456   22.4035 N   0  0  0  0  0  0  0  0  0  0  0  0
    1.8496  -26.1284   21.6765 C   0  0  0  0  0  0  0  0  0  0  0  0
    3.0952  -25.7696   21.1243 C   0  0  0  0  0  0  0  0  0  0  0  0
    3.3316  -24.4733   21.5481 C   0  0  0  0  0  0  0  0  0  0  0  0
    4.3919  -23.4780   21.3734 C   0  0  0  0  0  0  0  0  0  0  0  0
   10.6054  -15.3880   18.3675 S   0  0  0  0  0  0  0  0  0  0  0  0
   10.8578  -13.3932   16.1082 H   0  0  0  0  0  0  0  0  0  0  0  0
   12.4825  -13.5315   16.8207 H   0  0  0  0  0  0  0  0  0  0  0  0
   11.5408  -12.0470   17.0305 H   0  0  0  0  0  0  0  0  0  0  0  0
   10.5942  -11.9570   19.5052 H   0  0  0  0  0  0  0  0  0  0  0  0
    9.6555  -13.6191   21.3403 H   0  0  0  0  0  0  0  0  0  0  0  0
    8.1893  -17.3805   19.2465 H   0  0  0  0  0  0  0  0  0  0  0  0
    9.5808  -18.3384   19.7577 H   0  0  0  0  0  0  0  0  0  0  0  0
    6.7528  -18.1832   21.0062 H   0  0  0  0  0  0  0  0  0  0  0  0
    8.1042  -18.5901   22.0969 H   0  0  0  0  0  0  0  0  0  0  0  0
    5.7910  -20.9196   22.9875 H   0  0  0  0  0  0  0  0  0  0  0  0
    4.8872  -20.0657   21.7335 H   0  0  0  0  0  0  0  0  0  0  0  0
    2.9984  -20.9760   23.1987 H   0  0  0  0  0  0  0  0  0  0  0  0
    1.2334  -22.6958   23.4949 H   0  0  0  0  0  0  0  0  0  0  0  0
    1.3111  -27.0620   21.5774 H   0  0  0  0  0  0  0  0  0  0  0  0
    3.7384  -26.3694   20.4969 H   0  0  0  0  0  0  0  0  0  0  0  0
    5.2584  -23.7484   20.7765 H   0  0  0  0  0  0  0  0  0  0  0  0
  1  2  1  0
  2  3  2  0
  3  4  1  0
  4  5  2  0
  5  6  1  0
  6  7  2  0
  6  8  1  0
  8  9  1  0
  9 10  1  0
 10 11  2  0
 10 12  1  0
 12 13  1  0
 13 14  1  0
 14 15  1  0
 15 16  2  0
 16 17  1  0
 17 18  1  0
 18 19  2  0
 19 20  1  0
 20 21  2  0
 21 22  1  0
  5 23  1  0
 23  2  1  0
 22 14  2  0
 21 17  1  0
  1 24  1  0
  1 25  1  0
  1 26  1  0
  3 27  1  0
  4 28  1  0
  8 29  1  0
  8 30  1  0
  9 31  1  0
  9 32  1  0
 13 33  1  0
 13 34  1  0
 15 35  1  0
 16 36  1  0
 19 37  1  0
 20 38  1  0
 22 39  1  0
M  END
>  <Energy>  (1046) 
78.553962977882094

>  <compound_id>  (1046) 
50548

>  <target_id>  (1046) 
1

>  <reference_id>  (1046) 
76

>  <inspiration_ids>  (1046) 
[76, 68]

>  <energy_score>  (1046) 
9.966527797328808

>  <distance_score>  (1046) 
17.941953351654227

>  <path>  (1046) 
/opt/xchem-fragalysis-2/maxwin/BulkDock/SCRATCH/511021/C50548-P76/C50548-P76.minimised.mol

>  <scratch_subdir>  (1046) 
/opt/xchem-fragalysis-2/maxwin/BulkDock/SCRATCH/511021/C50548-P76

>  <fragmenstein_runtime>  (1046) 
6.772396564483643

>  <fragmenstein_outcome>  (1046) 
too moved

>  <fragmenstein_mode>  (1046) 
expansion

>  <fragmenstein_error>  (1046) 


$$$$
C50548-P68
     RDKit          3D

 39 41  0  0  0  0  0  0  0  0999 V2000
   13.3421   -5.9794   15.7914 C   0  0  0  0  0  0  0  0  0  0  0  0
   12.2335   -7.1011   16.1371 C   0  0  0  0  0  0  0  0  0  0  0  0
   11.0630   -6.3795   15.9047 C   0  0  0  0  0  0  0  0  0  0  0  0
    9.7205   -7.7220   15.4091 C   0  0  0  0  0  0  0  0  0  0  0  0
    9.5914   -9.3353   16.1207 C   0  0  0  0  0  0  0  0  0  0  0  0
    8.6434  -10.7489   17.0447 C   0  0  0  0  0  0  0  0  0  0  0  0
    9.3334  -11.7877   16.8933 O   0  0  0  0  0  0  0  0  0  0  0  0
    7.0481  -11.2938   18.2485 C   0  0  0  0  0  0  0  0  0  0  0  0
    5.7875  -12.6941   19.1716 C   0  0  0  0  0  0  0  0  0  0  0  0
    4.3926  -14.0555   18.5224 C   0  0  0  0  0  0  0  0  0  0  0  0
    4.7023  -14.4662   17.4403 O   0  0  0  0  0  0  0  0  0  0  0  0
    3.2646  -14.7560   18.9602 O   0  0  0  0  0  0  0  0  0  0  0  0
    3.0142  -16.0857   17.7501 C   0  0  0  0  0  0  0  0  0  0  0  0
    2.8046  -17.8993   17.3391 C   0  0  0  0  0  0  0  0  0  0  0  0
    1.8633  -18.8484   18.0441 C   0  0  0  0  0  0  0  0  0  0  0  0
    1.7901  -20.1843   17.9576 C   0  0  0  0  0  0  0  0  0  0  0  0
    2.4778  -20.8064   16.9622 N   0  0  0  0  0  0  0  0  0  0  0  0
    2.4672  -22.1332   16.6736 N   0  0  0  0  0  0  0  0  0  0  0  0
    3.0876  -22.2056   15.5033 C   0  0  0  0  0  0  0  0  0  0  0  0
    3.5937  -20.9536   15.0930 C   0  0  0  0  0  0  0  0  0  0  0  0
    3.2275  -20.0457   16.0688 C   0  0  0  0  0  0  0  0  0  0  0  0
    3.4109  -18.5868   16.3047 C   0  0  0  0  0  0  0  0  0  0  0  0
   11.7394   -9.3239   16.0053 S   0  0  0  0  0  0  0  0  0  0  0  0
   12.9530   -5.1009   15.2704 H   0  0  0  0  0  0  0  0  0  0  0  0
   13.5694   -5.3648   16.6858 H   0  0  0  0  0  0  0  0  0  0  0  0
   14.2110   -6.3281   15.2334 H   0  0  0  0  0  0  0  0  0  0  0  0
   11.1109   -5.4141   15.3782 H   0  0  0  0  0  0  0  0  0  0  0  0
    8.9998   -7.0549   14.9716 H   0  0  0  0  0  0  0  0  0  0  0  0
    6.2155  -10.7663   17.7807 H   0  0  0  0  0  0  0  0  0  0  0  0
    7.4194  -10.8874   19.2017 H   0  0  0  0  0  0  0  0  0  0  0  0
    6.5111  -13.3264   19.7161 H   0  0  0  0  0  0  0  0  0  0  0  0
    5.3859  -12.2109   20.0629 H   0  0  0  0  0  0  0  0  0  0  0  0
    4.0694  -16.2458   17.5362 H   0  0  0  0  0  0  0  0  0  0  0  0
    2.5244  -15.5345   16.9561 H   0  0  0  0  0  0  0  0  0  0  0  0
    1.2605  -18.2883   18.7173 H   0  0  0  0  0  0  0  0  0  0  0  0
    1.2204  -20.8300   18.5999 H   0  0  0  0  0  0  0  0  0  0  0  0
    3.1685  -23.1602   15.0011 H   0  0  0  0  0  0  0  0  0  0  0  0
    4.1474  -20.7301   14.1928 H   0  0  0  0  0  0  0  0  0  0  0  0
    4.0670  -18.0562   15.6212 H   0  0  0  0  0  0  0  0  0  0  0  0
  1  2  1  0
  2  3  2  0
  3  4  1  0
  4  5  2  0
  5  6  1  0
  6  7  2  0
  6  8  1  0
  8  9  1  0
  9 10  1  0
 10 11  2  0
 10 12  1  0
 12 13  1  0
 13 14  1  0
 14 15  1  0
 15 16  2  0
 16 17  1  0
 17 18  1  0
 18 19  2  0
 19 20  1  0
 20 21  2  0
 21 22  1  0
  5 23  1  0
 23  2  1  0
 22 14  2  0
 21 17  1  0
  1 24  1  0
  1 25  1  0
  1 26  1  0
  3 27  1  0
  4 28  1  0
  8 29  1  0
  8 30  1  0
  9 31  1  0
  9 32  1  0
 13 33  1  0
 13 34  1  0
 15 35  1  0
 16 36  1  0
 19 37  1  0
 20 38  1  0
 22 39  1  0
M  END
>  <Energy>  (1047) 
873.81286790205331

>  <compound_id>  (1047) 
50548

>  <target_id>  (1047) 
1

>  <reference_id>  (1047) 
68

>  <inspiration_ids>  (1047) 
[76, 68]

>  <energy_score>  (1047) 
805.225432721493

>  <distance_score>  (1047) 
16.88987757361772

>  <path>  (1047) 
/opt/xchem-fragalysis-2/maxwin/BulkDock/SCRATCH/511021/C50548-P68/C50548-P68.minimised.mol

>  <scratch_subdir>  (1047) 
/opt/xchem-fragalysis-2/maxwin/BulkDock/SCRATCH/511021/C50548-P68

>  <fragmenstein_runtime>  (1047) 
13.014970302581787

>  <fragmenstein_outcome>  (1047) 
too moved

>  <fragmenstein_mode>  (1047) 
expansion

>  <fragmenstein_error>  (1047) 


$$$$
C50553-P76
     RDKit          3D

 43 45  0  0  0  0  0  0  0  0999 V2000
   10.5639  -11.2619   17.7251 C   0  0  0  0  0  0  0  0  0  0  0  0
    9.3848  -10.9411   18.6217 C   0  0  0  0  0  0  0  0  0  0  0  0
    8.2161  -10.3050   18.4293 C   0  0  0  0  0  0  0  0  0  0  0  0
    6.9230  -10.6364   19.3229 C   0  0  0  0  0  0  0  0  0  0  0  0
    6.7849  -11.7862   20.0794 C   0  0  0  0  0  0  0  0  0  0  0  0
    5.3206  -12.7880   20.6853 C   0  0  0  0  0  0  0  0  0  0  0  0
    3.6941  -13.0257   21.8125 C   0  0  0  0  0  0  0  0  0  0  0  0
    3.1381  -14.5669   23.1296 C   0  0  0  0  0  0  0  0  0  0  0  0
    1.9857  -14.5165   23.3244 O   0  0  0  0  0  0  0  0  0  0  0  0
    4.0221  -15.9790   23.8231 N   0  0  0  0  0  0  0  0  0  0  0  0
    3.3846  -17.6077   24.7613 C   0  0  0  0  0  0  0  0  0  0  0  0
    2.6759  -18.5717   26.2519 C   0  0  0  0  0  0  0  0  0  0  0  0
    2.4395  -20.0509   26.9138 C   0  0  0  0  0  0  0  0  0  0  0  0
    3.3817  -21.0745   27.0358 C   0  0  0  0  0  0  0  0  0  0  0  0
    2.9719  -22.4430   27.2852 C   0  0  0  0  0  0  0  0  0  0  0  0
    1.6378  -22.8826   27.3956 C   0  0  0  0  0  0  0  0  0  0  0  0
    1.3197  -24.2096   27.4339 N   0  0  0  0  0  0  0  0  0  0  0  0
    0.0141  -24.5676   27.4356 C   0  0  0  0  0  0  0  0  0  0  0  0
   -1.0147  -23.6493   27.4407 C   0  0  0  0  0  0  0  0  0  0  0  0
   -0.6783  -22.2876   27.4415 C   0  0  0  0  0  0  0  0  0  0  0  0
    0.6675  -21.8659   27.3921 C   0  0  0  0  0  0  0  0  0  0  0  0
    1.0780  -20.4767   27.2243 C   0  0  0  0  0  0  0  0  0  0  0  0
    9.0557  -11.8820   19.9136 S   0  0  0  0  0  0  0  0  0  0  0  0
   10.4116  -12.2282   17.2288 H   0  0  0  0  0  0  0  0  0  0  0  0
   10.7238  -10.5677   16.8979 H   0  0  0  0  0  0  0  0  0  0  0  0
   11.4676  -11.3716   18.3270 H   0  0  0  0  0  0  0  0  0  0  0  0
    8.1006  -10.1356   17.3807 H   0  0  0  0  0  0  0  0  0  0  0  0
    5.9379  -10.3966   19.0666 H   0  0  0  0  0  0  0  0  0  0  0  0
    4.9168  -13.0271   19.6964 H   0  0  0  0  0  0  0  0  0  0  0  0
    5.0496  -11.7506   20.8706 H   0  0  0  0  0  0  0  0  0  0  0  0
    3.1441  -13.3707   20.9809 H   0  0  0  0  0  0  0  0  0  0  0  0
    3.4911  -12.1208   22.3864 H   0  0  0  0  0  0  0  0  0  0  0  0
    4.9907  -15.8448   23.6608 H   0  0  0  0  0  0  0  0  0  0  0  0
    2.3953  -17.4185   24.6138 H   0  0  0  0  0  0  0  0  0  0  0  0
    3.2867  -18.4089   24.0080 H   0  0  0  0  0  0  0  0  0  0  0  0
    2.4980  -17.8419   27.0508 H   0  0  0  0  0  0  0  0  0  0  0  0
    1.7730  -18.8151   25.6833 H   0  0  0  0  0  0  0  0  0  0  0  0
    4.4330  -20.8750   26.8404 H   0  0  0  0  0  0  0  0  0  0  0  0
    3.7507  -23.2061   27.3005 H   0  0  0  0  0  0  0  0  0  0  0  0
   -0.1772  -25.6359   27.4407 H   0  0  0  0  0  0  0  0  0  0  0  0
   -2.0500  -23.9693   27.4461 H   0  0  0  0  0  0  0  0  0  0  0  0
   -1.4763  -21.5488   27.4255 H   0  0  0  0  0  0  0  0  0  0  0  0
    0.2875  -19.7263   27.1589 H   0  0  0  0  0  0  0  0  0  0  0  0
  1  2  1  0
  2  3  2  0
  3  4  1  0
  4  5  2  0
  5  6  1  0
  6  7  1  0
  7  8  1  0
  8  9  2  0
  8 10  1  0
 10 11  1  0
 11 12  1  0
 12 13  1  0
 13 14  2  0
 14 15  1  0
 15 16  2  0
 16 17  1  0
 17 18  2  0
 18 19  1  0
 19 20  2  0
 20 21  1  0
 21 22  2  0
  5 23  1  0
 23  2  1  0
 22 13  1  0
 21 16  1  0
  1 24  1  0
  1 25  1  0
  1 26  1  0
  3 27  1  0
  4 28  1  0
  6 29  1  0
  6 30  1  0
  7 31  1  0
  7 32  1  0
 10 33  1  0
 11 34  1  0
 11 35  1  0
 12 36  1  0
 12 37  1  0
 14 38  1  0
 15 39  1  0
 18 40  1  0
 19 41  1  0
 20 42  1  0
 22 43  1  0
M  END
>  <Energy>  (1048) 
704.52509175352691

>  <compound_id>  (1048) 
50553

>  <target_id>  (1048) 
1

>  <reference_id>  (1048) 
76

>  <inspiration_ids>  (1048) 
[76, 68]

>  <energy_score>  (1048) 
645.9183171764637

>  <distance_score>  (1048) 
16.37261889227854

>  <path>  (1048) 
/opt/xchem-fragalysis-2/maxwin/BulkDock/SCRATCH/511021/C50553-P76/C50553-P76.minimised.mol

>  <scratch_subdir>  (1048) 
/opt/xchem-fragalysis-2/maxwin/BulkDock/SCRATCH/511021/C50553-P76

>  <fragmenstein_runtime>  (1048) 
11.31936764717102

>  <fragmenstein_outcome>  (1048) 
too moved

>  <fragmenstein_mode>  (1048) 
expansion

>  <fragmenstein_error>  (1048) 


$$$$
C50553-P68
     RDKit          3D

 43 45  0  0  0  0  0  0  0  0999 V2000
   -5.1083  -16.7930   20.3802 C   0  0  0  0  0  0  0  0  0  0  0  0
   -5.4903  -17.6006   19.1631 C   0  0  0  0  0  0  0  0  0  0  0  0
   -5.2100  -17.4356   17.8164 C   0  0  0  0  0  0  0  0  0  0  0  0
   -5.6845  -18.5406   17.0281 C   0  0  0  0  0  0  0  0  0  0  0  0
   -6.3563  -19.5118   17.7708 C   0  0  0  0  0  0  0  0  0  0  0  0
   -6.8966  -20.9039   17.3026 C   0  0  0  0  0  0  0  0  0  0  0  0
   -8.2795  -21.4850   17.8099 C   0  0  0  0  0  0  0  0  0  0  0  0
   -8.5198  -22.9940   17.3382 C   0  0  0  0  0  0  0  0  0  0  0  0
   -7.6501  -23.4809   16.6678 O   0  0  0  0  0  0  0  0  0  0  0  0
   -9.7468  -23.5868   17.8903 N   0  0  0  0  0  0  0  0  0  0  0  0
  -10.2453  -25.0003   17.8756 C   0  0  0  0  0  0  0  0  0  0  0  0
  -11.7621  -25.3750   17.7085 C   0  0  0  0  0  0  0  0  0  0  0  0
  -12.1011  -26.8395   17.3219 C   0  0  0  0  0  0  0  0  0  0  0  0
  -11.8070  -27.2933   16.0339 C   0  0  0  0  0  0  0  0  0  0  0  0
  -12.0931  -28.6144   15.6307 C   0  0  0  0  0  0  0  0  0  0  0  0
  -12.6086  -29.5691   16.4966 C   0  0  0  0  0  0  0  0  0  0  0  0
  -12.6056  -30.8644   16.1056 N   0  0  0  0  0  0  0  0  0  0  0  0
  -12.9134  -31.8155   17.0134 C   0  0  0  0  0  0  0  0  0  0  0  0
  -13.2797  -31.5284   18.3054 C   0  0  0  0  0  0  0  0  0  0  0  0
  -13.3137  -30.1860   18.6823 C   0  0  0  0  0  0  0  0  0  0  0  0
  -12.9400  -29.1518   17.7980 C   0  0  0  0  0  0  0  0  0  0  0  0
  -12.7382  -27.7739   18.1732 C   0  0  0  0  0  0  0  0  0  0  0  0
   -6.3668  -19.0550   19.4207 S   0  0  0  0  0  0  0  0  0  0  0  0
   -4.0658  -16.4947   20.3925 H   0  0  0  0  0  0  0  0  0  0  0  0
   -5.2456  -17.3844   21.2948 H   0  0  0  0  0  0  0  0  0  0  0  0
   -5.7743  -15.9310   20.4825 H   0  0  0  0  0  0  0  0  0  0  0  0
   -4.6349  -16.6207   17.4001 H   0  0  0  0  0  0  0  0  0  0  0  0
   -5.5144  -18.6338   15.9621 H   0  0  0  0  0  0  0  0  0  0  0  0
   -6.1096  -21.6264   17.5608 H   0  0  0  0  0  0  0  0  0  0  0  0
   -6.9338  -20.8798   16.2049 H   0  0  0  0  0  0  0  0  0  0  0  0
   -9.1007  -20.8693   17.4286 H   0  0  0  0  0  0  0  0  0  0  0  0
   -8.3068  -21.4739   18.9045 H   0  0  0  0  0  0  0  0  0  0  0  0
  -10.2090  -22.9039   18.4790 H   0  0  0  0  0  0  0  0  0  0  0  0
   -9.9712  -25.3637   18.8649 H   0  0  0  0  0  0  0  0  0  0  0  0
   -9.6382  -25.5337   17.1368 H   0  0  0  0  0  0  0  0  0  0  0  0
  -12.1888  -24.7310   16.9282 H   0  0  0  0  0  0  0  0  0  0  0  0
  -12.2986  -25.1114   18.6275 H   0  0  0  0  0  0  0  0  0  0  0  0
  -11.3440  -26.6215   15.3120 H   0  0  0  0  0  0  0  0  0  0  0  0
  -11.8209  -28.9205   14.6222 H   0  0  0  0  0  0  0  0  0  0  0  0
  -12.8553  -32.8382   16.6546 H   0  0  0  0  0  0  0  0  0  0  0  0
  -13.5135  -32.3189   19.0078 H   0  0  0  0  0  0  0  0  0  0  0  0
  -13.5332  -29.9803   19.7136 H   0  0  0  0  0  0  0  0  0  0  0  0
  -13.0150  -27.4584   19.1722 H   0  0  0  0  0  0  0  0  0  0  0  0
  1  2  1  0
  2  3  2  0
  3  4  1  0
  4  5  2  0
  5  6  1  0
  6  7  1  0
  7  8  1  0
  8  9  2  0
  8 10  1  0
 10 11  1  0
 11 12  1  0
 12 13  1  0
 13 14  2  0
 14 15  1  0
 15 16  2  0
 16 17  1  0
 17 18  2  0
 18 19  1  0
 19 20  2  0
 20 21  1  0
 21 22  2  0
  5 23  1  0
 23  2  1  0
 22 13  1  0
 21 16  1  0
  1 24  1  0
  1 25  1  0
  1 26  1  0
  3 27  1  0
  4 28  1  0
  6 29  1  0
  6 30  1  0
  7 31  1  0
  7 32  1  0
 10 33  1  0
 11 34  1  0
 11 35  1  0
 12 36  1  0
 12 37  1  0
 14 38  1  0
 15 39  1  0
 18 40  1  0
 19 41  1  0
 20 42  1  0
 22 43  1  0
M  END
>  <Energy>  (1049) 
58.789166105526419

>  <compound_id>  (1049) 
50553

>  <target_id>  (1049) 
1

>  <reference_id>  (1049) 
68

>  <inspiration_ids>  (1049) 
[76, 68]

>  <energy_score>  (1049) 
0.18239152846655315

>  <distance_score>  (1049) 
16.673030740091253

>  <path>  (1049) 
/opt/xchem-fragalysis-2/maxwin/BulkDock/SCRATCH/511021/C50553-P68/C50553-P68.minimised.mol

>  <scratch_subdir>  (1049) 
/opt/xchem-fragalysis-2/maxwin/BulkDock/SCRATCH/511021/C50553-P68

>  <fragmenstein_runtime>  (1049) 
24.570139408111572

>  <fragmenstein_outcome>  (1049) 
too moved

>  <fragmenstein_mode>  (1049) 
expansion

>  <fragmenstein_error>  (1049) 


$$$$
C50554-P76
     RDKit          3D

 42 44  0  0  0  0  0  0  0  0999 V2000
    6.3753  -12.1785   21.7134 C   0  0  0  0  0  0  0  0  0  0  0  0
    6.6626  -13.6369   21.6123 C   0  0  0  0  0  0  0  0  0  0  0  0
    7.3139  -14.3156   20.6078 C   0  0  0  0  0  0  0  0  0  0  0  0
    7.3864  -15.7181   20.8828 C   0  0  0  0  0  0  0  0  0  0  0  0
    6.7799  -16.1025   22.0802 C   0  0  0  0  0  0  0  0  0  0  0  0
    6.8386  -17.4621   22.7288 C   0  0  0  0  0  0  0  0  0  0  0  0
    7.7860  -18.1264   22.4218 O   0  0  0  0  0  0  0  0  0  0  0  0
    5.7872  -17.7090   23.6958 N   0  0  0  0  0  0  0  0  0  0  0  0
    5.6059  -18.8165   24.6840 C   0  0  0  0  0  0  0  0  0  0  0  0
    6.3145  -18.2151   25.9110 C   0  0  0  0  0  0  0  0  0  0  0  0
    4.1218  -19.3046   25.0137 C   0  0  0  0  0  0  0  0  0  0  0  0
    3.7388  -20.7477   25.3466 N   0  0  0  0  0  0  0  0  0  0  0  0
    2.5521  -21.2973   26.0212 C   0  0  0  0  0  0  0  0  0  0  0  0
    1.6252  -20.7403   26.5512 O   0  0  0  0  0  0  0  0  0  0  0  0
    2.3357  -22.9156   25.9861 C   0  0  0  0  0  0  0  0  0  0  0  0
    3.1504  -23.8907   25.2418 C   0  0  0  0  0  0  0  0  0  0  0  0
    2.7543  -25.1782   25.1047 C   0  0  0  0  0  0  0  0  0  0  0  0
    1.5889  -25.6470   25.7122 N   0  0  0  0  0  0  0  0  0  0  0  0
    1.0585  -26.8942   25.6447 N   0  0  0  0  0  0  0  0  0  0  0  0
   -0.0329  -26.8486   26.4134 C   0  0  0  0  0  0  0  0  0  0  0  0
   -0.2222  -25.5815   26.9946 C   0  0  0  0  0  0  0  0  0  0  0  0
    0.8142  -24.8069   26.5046 C   0  0  0  0  0  0  0  0  0  0  0  0
    1.2085  -23.4150   26.5945 C   0  0  0  0  0  0  0  0  0  0  0  0
    6.1583  -14.7014   22.8655 S   0  0  0  0  0  0  0  0  0  0  0  0
    6.7620  -11.6418   20.8407 H   0  0  0  0  0  0  0  0  0  0  0  0
    5.2966  -11.9984   21.7663 H   0  0  0  0  0  0  0  0  0  0  0  0
    6.8459  -11.7507   22.6047 H   0  0  0  0  0  0  0  0  0  0  0  0
    7.7278  -13.8437   19.7247 H   0  0  0  0  0  0  0  0  0  0  0  0
    7.8848  -16.4372   20.2415 H   0  0  0  0  0  0  0  0  0  0  0  0
    5.1918  -16.8905   23.7528 H   0  0  0  0  0  0  0  0  0  0  0  0
    6.1840  -19.6698   24.3124 H   0  0  0  0  0  0  0  0  0  0  0  0
    5.8105  -17.3058   26.2582 H   0  0  0  0  0  0  0  0  0  0  0  0
    7.3574  -17.9606   25.6899 H   0  0  0  0  0  0  0  0  0  0  0  0
    6.3153  -18.9364   26.7349 H   0  0  0  0  0  0  0  0  0  0  0  0
    3.6864  -18.6818   25.8034 H   0  0  0  0  0  0  0  0  0  0  0  0
    3.5400  -19.1017   24.1178 H   0  0  0  0  0  0  0  0  0  0  0  0
    4.2695  -21.5045   24.9453 H   0  0  0  0  0  0  0  0  0  0  0  0
    4.0796  -23.5673   24.7904 H   0  0  0  0  0  0  0  0  0  0  0  0
    3.3170  -25.9164   24.5480 H   0  0  0  0  0  0  0  0  0  0  0  0
   -0.6391  -27.7394   26.5210 H   0  0  0  0  0  0  0  0  0  0  0  0
   -1.0213  -25.2627   27.6485 H   0  0  0  0  0  0  0  0  0  0  0  0
    0.5403  -22.7496   27.1366 H   0  0  0  0  0  0  0  0  0  0  0  0
  1  2  1  0
  2  3  2  0
  3  4  1  0
  4  5  2  0
  5  6  1  0
  6  7  2  0
  6  8  1  0
  8  9  1  0
  9 10  1  0
  9 11  1  0
 11 12  1  0
 12 13  1  0
 13 14  2  0
 13 15  1  0
 15 16  1  0
 16 17  2  0
 17 18  1  0
 18 19  1  0
 19 20  2  0
 20 21  1  0
 21 22  2  0
 22 23  1  0
  5 24  1  0
 24  2  1  0
 23 15  2  0
 22 18  1  0
  1 25  1  0
  1 26  1  0
  1 27  1  0
  3 28  1  0
  4 29  1  0
  8 30  1  0
  9 31  1  0
 10 32  1  0
 10 33  1  0
 10 34  1  0
 11 35  1  0
 11 36  1  0
 12 37  1  0
 16 38  1  0
 17 39  1  0
 20 40  1  0
 21 41  1  0
 23 42  1  0
M  END
>  <Energy>  (1050) 
64.771840032716909

>  <compound_id>  (1050) 
50554

>  <target_id>  (1050) 
1

>  <reference_id>  (1050) 
76

>  <inspiration_ids>  (1050) 
[76, 68]

>  <energy_score>  (1050) 
1.1541355700024951

>  <distance_score>  (1050) 
18.83025760554863

>  <path>  (1050) 
/opt/xchem-fragalysis-2/maxwin/BulkDock/SCRATCH/511021/C50554-P76/C50554-P76.minimised.mol

>  <scratch_subdir>  (1050) 
/opt/xchem-fragalysis-2/maxwin/BulkDock/SCRATCH/511021/C50554-P76

>  <fragmenstein_runtime>  (1050) 
15.431740045547485

>  <fragmenstein_outcome>  (1050) 
too moved

>  <fragmenstein_mode>  (1050) 
expansion

>  <fragmenstein_error>  (1050) 


$$$$
C50554-P68
     RDKit          3D

 42 44  0  0  0  0  0  0  0  0999 V2000
    5.5486  -13.3430   16.5928 C   0  0  0  0  0  0  0  0  0  0  0  0
    5.8448  -14.7588   16.2344 C   0  0  0  0  0  0  0  0  0  0  0  0
    7.0133  -15.2956   15.7462 C   0  0  0  0  0  0  0  0  0  0  0  0
    6.8952  -16.7064   15.5298 C   0  0  0  0  0  0  0  0  0  0  0  0
    5.6463  -17.2425   15.8562 C   0  0  0  0  0  0  0  0  0  0  0  0
    5.2236  -18.7021   15.7364 C   0  0  0  0  0  0  0  0  0  0  0  0
    6.0462  -19.4495   15.2903 O   0  0  0  0  0  0  0  0  0  0  0  0
    3.8452  -18.9302   16.1000 N   0  0  0  0  0  0  0  0  0  0  0  0
    2.9734  -20.1388   15.9436 C   0  0  0  0  0  0  0  0  0  0  0  0
    2.7208  -20.0983   14.4387 C   0  0  0  0  0  0  0  0  0  0  0  0
    3.4199  -21.6074   16.4172 C   0  0  0  0  0  0  0  0  0  0  0  0
    2.4236  -22.6125   17.0337 N   0  0  0  0  0  0  0  0  0  0  0  0
    1.9978  -23.9429   16.5832 C   0  0  0  0  0  0  0  0  0  0  0  0
    2.2584  -24.5493   15.5777 O   0  0  0  0  0  0  0  0  0  0  0  0
    1.1322  -24.8074   17.6129 C   0  0  0  0  0  0  0  0  0  0  0  0
    1.8464  -25.7031   18.5442 C   0  0  0  0  0  0  0  0  0  0  0  0
    1.2116  -26.6634   19.2476 C   0  0  0  0  0  0  0  0  0  0  0  0
   -0.1558  -26.8623   19.1002 N   0  0  0  0  0  0  0  0  0  0  0  0
   -0.9408  -27.7399   19.7746 N   0  0  0  0  0  0  0  0  0  0  0  0
   -2.1553  -27.5918   19.2432 C   0  0  0  0  0  0  0  0  0  0  0  0
   -2.1848  -26.5899   18.2566 C   0  0  0  0  0  0  0  0  0  0  0  0
   -0.8948  -26.0948   18.1989 C   0  0  0  0  0  0  0  0  0  0  0  0
   -0.1962  -25.0712   17.4308 C   0  0  0  0  0  0  0  0  0  0  0  0
    4.6282  -15.9604   16.4018 S   0  0  0  0  0  0  0  0  0  0  0  0
    6.4258  -12.7071   16.4334 H   0  0  0  0  0  0  0  0  0  0  0  0
    4.7330  -12.9496   15.9772 H   0  0  0  0  0  0  0  0  0  0  0  0
    5.2627  -13.2611   17.6466 H   0  0  0  0  0  0  0  0  0  0  0  0
    7.9097  -14.7204   15.5481 H   0  0  0  0  0  0  0  0  0  0  0  0
    7.6961  -17.3264   15.1412 H   0  0  0  0  0  0  0  0  0  0  0  0
    3.4240  -18.0488   16.3660 H   0  0  0  0  0  0  0  0  0  0  0  0
    2.0663  -19.8966   16.5014 H   0  0  0  0  0  0  0  0  0  0  0  0
    2.1580  -19.2100   14.1493 H   0  0  0  0  0  0  0  0  0  0  0  0
    2.1388  -20.9700   14.1414 H   0  0  0  0  0  0  0  0  0  0  0  0
    3.6493  -20.1227   13.8575 H   0  0  0  0  0  0  0  0  0  0  0  0
    3.8852  -22.1309   15.5741 H   0  0  0  0  0  0  0  0  0  0  0  0
    4.1877  -21.5008   17.1781 H   0  0  0  0  0  0  0  0  0  0  0  0
    2.0776  -22.4542   17.9720 H   0  0  0  0  0  0  0  0  0  0  0  0
    2.9250  -25.5927   18.6091 H   0  0  0  0  0  0  0  0  0  0  0  0
    1.7198  -27.3308   19.9307 H   0  0  0  0  0  0  0  0  0  0  0  0
   -2.9660  -28.2176   19.5937 H   0  0  0  0  0  0  0  0  0  0  0  0
   -3.0306  -26.2734   17.6629 H   0  0  0  0  0  0  0  0  0  0  0  0
   -0.7483  -24.5679   16.6467 H   0  0  0  0  0  0  0  0  0  0  0  0
  1  2  1  0
  2  3  2  0
  3  4  1  0
  4  5  2  0
  5  6  1  0
  6  7  2  0
  6  8  1  0
  8  9  1  0
  9 10  1  0
  9 11  1  0
 11 12  1  0
 12 13  1  0
 13 14  2  0
 13 15  1  0
 15 16  1  0
 16 17  2  0
 17 18  1  0
 18 19  1  0
 19 20  2  0
 20 21  1  0
 21 22  2  0
 22 23  1  0
  5 24  1  0
 24  2  1  0
 23 15  2  0
 22 18  1  0
  1 25  1  0
  1 26  1  0
  1 27  1  0
  3 28  1  0
  4 29  1  0
  8 30  1  0
  9 31  1  0
 10 32  1  0
 10 33  1  0
 10 34  1  0
 11 35  1  0
 11 36  1  0
 12 37  1  0
 16 38  1  0
 17 39  1  0
 20 40  1  0
 21 41  1  0
 23 42  1  0
M  END
>  <Energy>  (1051) 
64.637723611378476

>  <compound_id>  (1051) 
50554

>  <target_id>  (1051) 
1

>  <reference_id>  (1051) 
68

>  <inspiration_ids>  (1051) 
[76, 68]

>  <energy_score>  (1051) 
1.020019148662925

>  <distance_score>  (1051) 
18.522208690391903

>  <path>  (1051) 
/opt/xchem-fragalysis-2/maxwin/BulkDock/SCRATCH/511021/C50554-P68/C50554-P68.minimised.mol

>  <scratch_subdir>  (1051) 
/opt/xchem-fragalysis-2/maxwin/BulkDock/SCRATCH/511021/C50554-P68

>  <fragmenstein_runtime>  (1051) 
18.170353651046753

>  <fragmenstein_outcome>  (1051) 
too moved

>  <fragmenstein_mode>  (1051) 
expansion

>  <fragmenstein_error>  (1051) 


$$$$
C50555-P76
     RDKit          3D

 43 45  0  0  0  0  0  0  0  0999 V2000
    7.8291   -9.9280   20.5150 C   0  0  0  0  0  0  0  0  0  0  0  0
    6.9296  -11.1062   20.3620 C   0  0  0  0  0  0  0  0  0  0  0  0
    5.9174  -11.4020   19.5562 C   0  0  0  0  0  0  0  0  0  0  0  0
    5.0878  -12.7660   19.6306 C   0  0  0  0  0  0  0  0  0  0  0  0
    5.7753  -13.9851   19.9068 C   0  0  0  0  0  0  0  0  0  0  0  0
    5.6048  -16.1092   19.8619 C   0  0  0  0  0  0  0  0  0  0  0  0
    4.6771  -15.8394   18.7046 O   0  0  0  0  0  0  0  0  0  0  0  0
    5.0782  -17.9169   20.8277 C   0  0  0  0  0  0  0  0  0  0  0  0
    3.3481  -19.2584   21.0233 C   0  0  0  0  0  0  0  0  0  0  0  0
    2.8189  -20.8049   19.7764 N   0  0  0  0  0  0  0  0  0  0  0  0
    4.5027  -21.2487   20.0538 C   0  0  0  0  0  0  0  0  0  0  0  0
    1.5808  -22.3507   20.0746 C   0  0  0  0  0  0  0  0  0  0  0  0
    1.0047  -22.7001   21.0576 O   0  0  0  0  0  0  0  0  0  0  0  0
    1.4817  -23.3976   18.5867 N   0  0  0  0  0  0  0  0  0  0  0  0
    0.8649  -24.7311   18.3653 C   0  0  0  0  0  0  0  0  0  0  0  0
    0.5747  -25.4651   19.5946 C   0  0  0  0  0  0  0  0  0  0  0  0
   -0.1295  -26.6945   19.7719 C   0  0  0  0  0  0  0  0  0  0  0  0
   -0.5999  -27.2450   18.5791 C   0  0  0  0  0  0  0  0  0  0  0  0
   -1.3119  -28.3746   18.4490 N   0  0  0  0  0  0  0  0  0  0  0  0
   -1.6606  -28.6341   16.8572 S   0  0  0  0  0  0  0  0  0  0  0  0
   -0.8571  -27.2407   16.2517 C   0  0  0  0  0  0  0  0  0  0  0  0
   -0.3029  -26.5474   17.3052 C   0  0  0  0  0  0  0  0  0  0  0  0
    0.4372  -25.3147   17.1579 C   0  0  0  0  0  0  0  0  0  0  0  0
    7.0720  -12.5526   21.0283 S   0  0  0  0  0  0  0  0  0  0  0  0
    8.8224  -10.1467   20.1102 H   0  0  0  0  0  0  0  0  0  0  0  0
    7.9341   -9.6576   21.5706 H   0  0  0  0  0  0  0  0  0  0  0  0
    7.4288   -9.0600   19.9824 H   0  0  0  0  0  0  0  0  0  0  0  0
    5.7773  -10.5522   18.9176 H   0  0  0  0  0  0  0  0  0  0  0  0
    4.1651  -12.8624   19.0872 H   0  0  0  0  0  0  0  0  0  0  0  0
    6.5621  -16.5717   19.6360 H   0  0  0  0  0  0  0  0  0  0  0  0
    4.0526  -15.1538   19.0062 H   0  0  0  0  0  0  0  0  0  0  0  0
    5.5057  -17.9779   21.8159 H   0  0  0  0  0  0  0  0  0  0  0  0
    5.9910  -18.4685   20.4825 H   0  0  0  0  0  0  0  0  0  0  0  0
    2.3207  -19.1309   21.3631 H   0  0  0  0  0  0  0  0  0  0  0  0
    3.4097  -19.3680   22.1692 H   0  0  0  0  0  0  0  0  0  0  0  0
    5.2876  -20.5614   20.3934 H   0  0  0  0  0  0  0  0  0  0  0  0
    4.7697  -21.5721   19.0325 H   0  0  0  0  0  0  0  0  0  0  0  0
    4.9450  -21.9028   20.7851 H   0  0  0  0  0  0  0  0  0  0  0  0
    1.9516  -22.9175   17.8292 H   0  0  0  0  0  0  0  0  0  0  0  0
    0.8798  -25.0089   20.5309 H   0  0  0  0  0  0  0  0  0  0  0  0
   -0.3107  -27.1276   20.7453 H   0  0  0  0  0  0  0  0  0  0  0  0
   -0.8413  -27.0187   15.1952 H   0  0  0  0  0  0  0  0  0  0  0  0
    0.5967  -24.8368   16.2007 H   0  0  0  0  0  0  0  0  0  0  0  0
  1  2  1  0
  2  3  2  0
  3  4  1  0
  4  5  2  0
  5  6  1  0
  6  7  1  0
  6  8  1  0
  8  9  1  0
  9 10  1  0
 10 11  1  0
 10 12  1  0
 12 13  2  0
 12 14  1  0
 14 15  1  0
 15 16  1  0
 16 17  2  0
 17 18  1  0
 18 19  2  0
 19 20  1  0
 20 21  1  0
 21 22  2  0
 22 23  1  0
  5 24  1  0
 24  2  1  0
 23 15  2  0
 22 18  1  0
  1 25  1  0
  1 26  1  0
  1 27  1  0
  3 28  1  0
  4 29  1  0
  6 30  1  0
  7 31  1  0
  8 32  1  0
  8 33  1  0
  9 34  1  0
  9 35  1  0
 11 36  1  0
 11 37  1  0
 11 38  1  0
 14 39  1  0
 16 40  1  0
 17 41  1  0
 21 42  1  0
 23 43  1  0
M  END
>  <Energy>  (1052) 
890.50066912934562

>  <compound_id>  (1052) 
50555

>  <target_id>  (1052) 
1

>  <reference_id>  (1052) 
76

>  <inspiration_ids>  (1052) 
[76, 68]

>  <energy_score>  (1052) 
855.5724242763131

>  <distance_score>  (1052) 
13.946088663533653

>  <path>  (1052) 
/opt/xchem-fragalysis-2/maxwin/BulkDock/SCRATCH/511021/C50555-P76/C50555-P76.minimised.mol

>  <scratch_subdir>  (1052) 
/opt/xchem-fragalysis-2/maxwin/BulkDock/SCRATCH/511021/C50555-P76

>  <fragmenstein_runtime>  (1052) 
11.969310522079468

>  <fragmenstein_outcome>  (1052) 
too moved

>  <fragmenstein_mode>  (1052) 
expansion

>  <fragmenstein_error>  (1052) 


$$$$
C50555-P68
     RDKit          3D

 43 45  0  0  0  0  0  0  0  0999 V2000
    9.8460  -13.5410   14.9611 C   0  0  0  0  0  0  0  0  0  0  0  0
    8.4638  -14.1045   14.7100 C   0  0  0  0  0  0  0  0  0  0  0  0
    7.3610  -13.5707   13.8897 C   0  0  0  0  0  0  0  0  0  0  0  0
    5.7605  -14.7008   13.7043 C   0  0  0  0  0  0  0  0  0  0  0  0
    5.9011  -16.0656   14.9498 C   0  0  0  0  0  0  0  0  0  0  0  0
    5.1562  -17.4394   15.4225 C   0  0  0  0  0  0  0  0  0  0  0  0
    4.0687  -17.0103   16.2436 O   0  0  0  0  0  0  0  0  0  0  0  0
    4.6457  -18.6161   14.4862 C   0  0  0  0  0  0  0  0  0  0  0  0
    4.5405  -20.1025   15.1975 C   0  0  0  0  0  0  0  0  0  0  0  0
    3.3197  -21.1228   15.4991 N   0  0  0  0  0  0  0  0  0  0  0  0
    2.8297  -19.9706   16.2820 C   0  0  0  0  0  0  0  0  0  0  0  0
    3.2756  -22.4267   16.3720 C   0  0  0  0  0  0  0  0  0  0  0  0
    4.1237  -22.8734   17.0623 O   0  0  0  0  0  0  0  0  0  0  0  0
    1.8487  -22.9317   16.1063 N   0  0  0  0  0  0  0  0  0  0  0  0
    1.1014  -24.0514   16.7043 C   0  0  0  0  0  0  0  0  0  0  0  0
    1.6285  -24.7411   17.8443 C   0  0  0  0  0  0  0  0  0  0  0  0
    1.0129  -25.8249   18.5696 C   0  0  0  0  0  0  0  0  0  0  0  0
   -0.2301  -26.2714   18.0791 C   0  0  0  0  0  0  0  0  0  0  0  0
   -0.9924  -27.2687   18.5565 N   0  0  0  0  0  0  0  0  0  0  0  0
   -2.3446  -27.4473   17.6190 S   0  0  0  0  0  0  0  0  0  0  0  0
   -1.9857  -26.1677   16.5274 C   0  0  0  0  0  0  0  0  0  0  0  0
   -0.7880  -25.5937   16.8976 C   0  0  0  0  0  0  0  0  0  0  0  0
   -0.1639  -24.4958   16.2055 C   0  0  0  0  0  0  0  0  0  0  0  0
    8.0806  -16.0552   15.5701 S   0  0  0  0  0  0  0  0  0  0  0  0
    9.9045  -12.5010   14.6276 H   0  0  0  0  0  0  0  0  0  0  0  0
   10.5819  -14.1245   14.3998 H   0  0  0  0  0  0  0  0  0  0  0  0
   10.1041  -13.5840   16.0222 H   0  0  0  0  0  0  0  0  0  0  0  0
    7.3500  -12.6398   13.3219 H   0  0  0  0  0  0  0  0  0  0  0  0
    5.6641  -13.4645   13.9128 H   0  0  0  0  0  0  0  0  0  0  0  0
    5.8886  -17.8963   16.0958 H   0  0  0  0  0  0  0  0  0  0  0  0
    3.2753  -16.9779   15.6752 H   0  0  0  0  0  0  0  0  0  0  0  0
    3.6935  -18.3868   14.0134 H   0  0  0  0  0  0  0  0  0  0  0  0
    5.3887  -18.7141   13.6844 H   0  0  0  0  0  0  0  0  0  0  0  0
    5.0702  -20.7324   14.4645 H   0  0  0  0  0  0  0  0  0  0  0  0
    5.2285  -20.1495   16.0540 H   0  0  0  0  0  0  0  0  0  0  0  0
    1.9552  -20.3211   16.8445 H   0  0  0  0  0  0  0  0  0  0  0  0
    2.4506  -19.1807   15.6304 H   0  0  0  0  0  0  0  0  0  0  0  0
    3.4932  -19.6211   17.0697 H   0  0  0  0  0  0  0  0  0  0  0  0
    1.4156  -22.3544   15.3953 H   0  0  0  0  0  0  0  0  0  0  0  0
    2.5986  -24.4118   18.2187 H   0  0  0  0  0  0  0  0  0  0  0  0
    1.4940  -26.2675   19.4326 H   0  0  0  0  0  0  0  0  0  0  0  0
   -2.6477  -25.9258   15.7094 H   0  0  0  0  0  0  0  0  0  0  0  0
   -0.6084  -24.0522   15.3241 H   0  0  0  0  0  0  0  0  0  0  0  0
  1  2  1  0
  2  3  2  0
  3  4  1  0
  4  5  2  0
  5  6  1  0
  6  7  1  0
  6  8  1  0
  8  9  1  0
  9 10  1  0
 10 11  1  0
 10 12  1  0
 12 13  2  0
 12 14  1  0
 14 15  1  0
 15 16  1  0
 16 17  2  0
 17 18  1  0
 18 19  2  0
 19 20  1  0
 20 21  1  0
 21 22  2  0
 22 23  1  0
  5 24  1  0
 24  2  1  0
 23 15  2  0
 22 18  1  0
  1 25  1  0
  1 26  1  0
  1 27  1  0
  3 28  1  0
  4 29  1  0
  6 30  1  0
  7 31  1  0
  8 32  1  0
  8 33  1  0
  9 34  1  0
  9 35  1  0
 11 36  1  0
 11 37  1  0
 11 38  1  0
 14 39  1  0
 16 40  1  0
 17 41  1  0
 21 42  1  0
 23 43  1  0
M  END
>  <Energy>  (1053) 
373.19268943597541

>  <compound_id>  (1053) 
50555

>  <target_id>  (1053) 
1

>  <reference_id>  (1053) 
68

>  <inspiration_ids>  (1053) 
[76, 68]

>  <energy_score>  (1053) 
338.2644445829367

>  <distance_score>  (1053) 
14.921969414411603

>  <path>  (1053) 
/opt/xchem-fragalysis-2/maxwin/BulkDock/SCRATCH/511021/C50555-P68/C50555-P68.minimised.mol

>  <scratch_subdir>  (1053) 
/opt/xchem-fragalysis-2/maxwin/BulkDock/SCRATCH/511021/C50555-P68

>  <fragmenstein_runtime>  (1053) 
26.003140449523926

>  <fragmenstein_outcome>  (1053) 
too moved

>  <fragmenstein_mode>  (1053) 
expansion

>  <fragmenstein_error>  (1053) 


$$$$
C50557-P76
     RDKit          3D

 38 40  0  0  0  0  0  0  0  0999 V2000
   -1.2966  -17.8243   20.8236 C   0  0  0  0  0  0  0  0  0  0  0  0
   -1.7743  -19.2330   21.1564 C   0  0  0  0  0  0  0  0  0  0  0  0
   -1.2848  -20.0981   22.1140 C   0  0  0  0  0  0  0  0  0  0  0  0
   -1.9450  -21.3975   22.1284 C   0  0  0  0  0  0  0  0  0  0  0  0
   -2.9894  -21.5425   21.2206 C   0  0  0  0  0  0  0  0  0  0  0  0
   -4.0279  -22.7947   20.8383 C   0  0  0  0  0  0  0  0  0  0  0  0
   -3.5831  -23.3209   19.4644 C   0  0  0  0  0  0  0  0  0  0  0  0
   -4.1596  -24.0658   21.7971 N   0  0  0  0  0  0  0  0  0  0  0  0
   -5.6452  -25.0653   21.6858 S   0  0  0  0  0  0  0  0  0  0  0  0
   -6.0846  -25.0948   20.3079 O   0  0  0  0  0  0  0  0  0  0  0  0
   -6.5580  -24.6283   22.7212 O   0  0  0  0  0  0  0  0  0  0  0  0
   -5.2901  -26.8194   22.0704 C   0  0  0  0  0  0  0  0  0  0  0  0
   -4.6119  -27.6112   21.1445 C   0  0  0  0  0  0  0  0  0  0  0  0
   -4.6044  -29.0180   21.2822 C   0  0  0  0  0  0  0  0  0  0  0  0
   -5.2913  -29.6842   22.2940 C   0  0  0  0  0  0  0  0  0  0  0  0
   -5.2701  -31.0337   22.3469 N   0  0  0  0  0  0  0  0  0  0  0  0
   -6.0143  -31.6463   23.2915 C   0  0  0  0  0  0  0  0  0  0  0  0
   -6.7695  -30.9640   24.2240 C   0  0  0  0  0  0  0  0  0  0  0  0
   -6.7562  -29.5691   24.1895 C   0  0  0  0  0  0  0  0  0  0  0  0
   -6.0092  -28.8916   23.2133 C   0  0  0  0  0  0  0  0  0  0  0  0
   -5.9936  -27.4697   23.1058 C   0  0  0  0  0  0  0  0  0  0  0  0
   -3.0703  -20.0050   20.3077 S   0  0  0  0  0  0  0  0  0  0  0  0
   -1.8622  -17.4076   19.9855 H   0  0  0  0  0  0  0  0  0  0  0  0
   -0.2384  -17.8268   20.5718 H   0  0  0  0  0  0  0  0  0  0  0  0
   -1.4471  -17.1757   21.6924 H   0  0  0  0  0  0  0  0  0  0  0  0
   -0.4604  -19.8510   22.7741 H   0  0  0  0  0  0  0  0  0  0  0  0
   -1.6590  -22.1893   22.8110 H   0  0  0  0  0  0  0  0  0  0  0  0
   -5.0246  -22.3384   20.7860 H   0  0  0  0  0  0  0  0  0  0  0  0
   -4.2555  -24.0872   19.0743 H   0  0  0  0  0  0  0  0  0  0  0  0
   -2.5855  -23.7696   19.5298 H   0  0  0  0  0  0  0  0  0  0  0  0
   -3.5416  -22.5212   18.7182 H   0  0  0  0  0  0  0  0  0  0  0  0
   -3.3156  -24.6371   21.7947 H   0  0  0  0  0  0  0  0  0  0  0  0
   -4.1327  -27.1632   20.2769 H   0  0  0  0  0  0  0  0  0  0  0  0
   -4.0779  -29.6177   20.5410 H   0  0  0  0  0  0  0  0  0  0  0  0
   -5.9866  -32.7312   23.2723 H   0  0  0  0  0  0  0  0  0  0  0  0
   -7.3590  -31.4982   24.9598 H   0  0  0  0  0  0  0  0  0  0  0  0
   -7.3521  -29.0143   24.9102 H   0  0  0  0  0  0  0  0  0  0  0  0
   -6.6016  -26.8810   23.7926 H   0  0  0  0  0  0  0  0  0  0  0  0
  1  2  1  0
  2  3  2  0
  3  4  1  0
  4  5  2  0
  5  6  1  0
  6  7  1  0
  6  8  1  0
  8  9  1  0
  9 10  2  0
  9 11  2  0
  9 12  1  0
 12 13  2  0
 13 14  1  0
 14 15  2  0
 15 16  1  0
 16 17  2  0
 17 18  1  0
 18 19  2  0
 19 20  1  0
 20 21  2  0
  5 22  1  0
 22  2  1  0
 21 12  1  0
 20 15  1  0
  1 23  1  0
  1 24  1  0
  1 25  1  0
  3 26  1  0
  4 27  1  0
  6 28  1  0
  7 29  1  0
  7 30  1  0
  7 31  1  0
  8 32  1  0
 13 33  1  0
 14 34  1  0
 17 35  1  0
 18 36  1  0
 19 37  1  0
 21 38  1  0
M  END
>  <Energy>  (1054) 
4.8219871566482784

>  <compound_id>  (1054) 
50557

>  <target_id>  (1054) 
1

>  <reference_id>  (1054) 
76

>  <inspiration_ids>  (1054) 
[76, 68]

>  <energy_score>  (1054) 
2.4161145794213894

>  <distance_score>  (1054) 
16.423630430523218

>  <path>  (1054) 
/opt/xchem-fragalysis-2/maxwin/BulkDock/SCRATCH/511021/C50557-P76/C50557-P76.minimised.mol

>  <scratch_subdir>  (1054) 
/opt/xchem-fragalysis-2/maxwin/BulkDock/SCRATCH/511021/C50557-P76

>  <fragmenstein_runtime>  (1054) 
10.463991403579712

>  <fragmenstein_outcome>  (1054) 
too moved

>  <fragmenstein_mode>  (1054) 
expansion

>  <fragmenstein_error>  (1054) 


$$$$
C50557-P68
     RDKit          3D

 38 40  0  0  0  0  0  0  0  0999 V2000
   10.5202  -14.2305   18.3378 C   0  0  0  0  0  0  0  0  0  0  0  0
    9.0316  -14.5067   17.9177 C   0  0  0  0  0  0  0  0  0  0  0  0
    8.4317  -15.5981   16.4138 C   0  0  0  0  0  0  0  0  0  0  0  0
    6.8723  -16.8443   16.6095 C   0  0  0  0  0  0  0  0  0  0  0  0
    6.0151  -16.5702   18.3840 C   0  0  0  0  0  0  0  0  0  0  0  0
    4.1267  -16.7823   17.8762 C   0  0  0  0  0  0  0  0  0  0  0  0
    3.1462  -15.6454   18.0512 C   0  0  0  0  0  0  0  0  0  0  0  0
    3.4304  -18.4593   17.2469 N   0  0  0  0  0  0  0  0  0  0  0  0
    2.0799  -19.9494   17.5334 S   0  0  0  0  0  0  0  0  0  0  0  0
    0.8129  -19.3330   17.8489 O   0  0  0  0  0  0  0  0  0  0  0  0
    2.2413  -20.6835   16.2833 O   0  0  0  0  0  0  0  0  0  0  0  0
    1.9625  -21.5527   18.6839 C   0  0  0  0  0  0  0  0  0  0  0  0
    2.4495  -22.7712   18.1763 C   0  0  0  0  0  0  0  0  0  0  0  0
    1.9217  -24.0422   18.5816 C   0  0  0  0  0  0  0  0  0  0  0  0
    0.8464  -24.1956   19.4553 C   0  0  0  0  0  0  0  0  0  0  0  0
    0.3570  -25.4345   19.7477 N   0  0  0  0  0  0  0  0  0  0  0  0
   -0.7191  -25.5295   20.5567 C   0  0  0  0  0  0  0  0  0  0  0  0
   -1.3413  -24.4256   21.1015 C   0  0  0  0  0  0  0  0  0  0  0  0
   -0.8231  -23.1551   20.8018 C   0  0  0  0  0  0  0  0  0  0  0  0
    0.2957  -23.0008   19.9577 C   0  0  0  0  0  0  0  0  0  0  0  0
    0.8468  -21.7066   19.5645 C   0  0  0  0  0  0  0  0  0  0  0  0
    7.3387  -14.8180   19.7016 S   0  0  0  0  0  0  0  0  0  0  0  0
   11.0992  -15.1429   18.1665 H   0  0  0  0  0  0  0  0  0  0  0  0
   10.5749  -13.9733   19.3997 H   0  0  0  0  0  0  0  0  0  0  0  0
   10.9381  -13.4277   17.7230 H   0  0  0  0  0  0  0  0  0  0  0  0
    9.0918  -15.7372   15.5618 H   0  0  0  0  0  0  0  0  0  0  0  0
    6.4222  -17.3754   15.7740 H   0  0  0  0  0  0  0  0  0  0  0  0
    4.3945  -16.5525   16.8229 H   0  0  0  0  0  0  0  0  0  0  0  0
    3.6646  -14.7003   18.2285 H   0  0  0  0  0  0  0  0  0  0  0  0
    2.5517  -15.5360   17.1464 H   0  0  0  0  0  0  0  0  0  0  0  0
    2.4312  -15.7922   18.8581 H   0  0  0  0  0  0  0  0  0  0  0  0
    3.3706  -18.3630   16.2213 H   0  0  0  0  0  0  0  0  0  0  0  0
    3.2078  -22.7538   17.3946 H   0  0  0  0  0  0  0  0  0  0  0  0
    2.3529  -24.9393   18.1394 H   0  0  0  0  0  0  0  0  0  0  0  0
   -1.0682  -26.5376   20.7549 H   0  0  0  0  0  0  0  0  0  0  0  0
   -2.2025  -24.5351   21.7502 H   0  0  0  0  0  0  0  0  0  0  0  0
   -1.3007  -22.2754   21.2279 H   0  0  0  0  0  0  0  0  0  0  0  0
    0.3339  -20.8112   19.9076 H   0  0  0  0  0  0  0  0  0  0  0  0
  1  2  1  0
  2  3  2  0
  3  4  1  0
  4  5  2  0
  5  6  1  0
  6  7  1  0
  6  8  1  0
  8  9  1  0
  9 10  2  0
  9 11  2  0
  9 12  1  0
 12 13  2  0
 13 14  1  0
 14 15  2  0
 15 16  1  0
 16 17  2  0
 17 18  1  0
 18 19  2  0
 19 20  1  0
 20 21  2  0
  5 22  1  0
 22  2  1  0
 21 12  1  0
 20 15  1  0
  1 23  1  0
  1 24  1  0
  1 25  1  0
  3 26  1  0
  4 27  1  0
  6 28  1  0
  7 29  1  0
  7 30  1  0
  7 31  1  0
  8 32  1  0
 13 33  1  0
 14 34  1  0
 17 35  1  0
 18 36  1  0
 19 37  1  0
 21 38  1  0
M  END
>  <Energy>  (1055) 
847.61453808562942

>  <compound_id>  (1055) 
50557

>  <target_id>  (1055) 
1

>  <reference_id>  (1055) 
68

>  <inspiration_ids>  (1055) 
[76, 68]

>  <energy_score>  (1055) 
845.2086655083901

>  <distance_score>  (1055) 
16.43835127750665

>  <path>  (1055) 
/opt/xchem-fragalysis-2/maxwin/BulkDock/SCRATCH/511021/C50557-P68/C50557-P68.minimised.mol

>  <scratch_subdir>  (1055) 
/opt/xchem-fragalysis-2/maxwin/BulkDock/SCRATCH/511021/C50557-P68

>  <fragmenstein_runtime>  (1055) 
10.284677743911743

>  <fragmenstein_outcome>  (1055) 
too moved

>  <fragmenstein_mode>  (1055) 
expansion

>  <fragmenstein_error>  (1055) 


$$$$
C50558-P76
     RDKit          3D

 32 34  0  0  0  0  0  0  0  0999 V2000
    4.0026  -18.6431   24.0504 C   0  0  0  0  0  0  0  0  0  0  0  0
    3.9753  -18.6028   22.5471 C   0  0  0  0  0  0  0  0  0  0  0  0
    5.1455  -17.2048   22.1072 S   0  0  0  0  0  0  0  0  0  0  0  0
    6.2402  -18.4228   21.6876 C   0  0  0  0  0  0  0  0  0  0  0  0
    5.4966  -19.5580   21.3938 C   0  0  0  0  0  0  0  0  0  0  0  0
    3.6681  -19.4856   21.3384 C   0  0  0  0  0  0  0  0  0  0  0  0
    2.6566  -20.9920   20.2935 C   0  0  0  0  0  0  0  0  0  0  0  0
    1.5816  -22.8695   20.5653 C   0  0  0  0  0  0  0  0  0  0  0  0
    0.6605  -22.7554   21.3052 O   0  0  0  0  0  0  0  0  0  0  0  0
    2.0443  -24.5772   19.9961 N   0  0  0  0  0  0  0  0  0  0  0  0
    1.5131  -26.0174   20.4272 C   0  0  0  0  0  0  0  0  0  0  0  0
    2.4371  -27.1379   20.0844 C   0  0  0  0  0  0  0  0  0  0  0  0
    2.1237  -28.4283   20.3434 C   0  0  0  0  0  0  0  0  0  0  0  0
    0.9351  -28.7699   20.9885 N   0  0  0  0  0  0  0  0  0  0  0  0
    0.4624  -30.0109   21.2815 N   0  0  0  0  0  0  0  0  0  0  0  0
   -0.7133  -29.7971   21.8815 C   0  0  0  0  0  0  0  0  0  0  0  0
   -1.0163  -28.4310   21.9965 C   0  0  0  0  0  0  0  0  0  0  0  0
    0.0554  -27.7882   21.4109 C   0  0  0  0  0  0  0  0  0  0  0  0
    0.4023  -26.4185   21.1382 C   0  0  0  0  0  0  0  0  0  0  0  0
    5.0268  -18.8119   24.4090 H   0  0  0  0  0  0  0  0  0  0  0  0
    3.4283  -19.4473   24.4871 H   0  0  0  0  0  0  0  0  0  0  0  0
    3.6600  -17.7036   24.4972 H   0  0  0  0  0  0  0  0  0  0  0  0
    7.2971  -18.2561   21.5458 H   0  0  0  0  0  0  0  0  0  0  0  0
    5.9721  -20.4116   20.9239 H   0  0  0  0  0  0  0  0  0  0  0  0
    2.0360  -20.2218   20.7415 H   0  0  0  0  0  0  0  0  0  0  0  0
    3.0322  -20.8048   19.2758 H   0  0  0  0  0  0  0  0  0  0  0  0
    2.7821  -24.4986   19.3087 H   0  0  0  0  0  0  0  0  0  0  0  0
    3.3634  -26.8843   19.5808 H   0  0  0  0  0  0  0  0  0  0  0  0
    2.7644  -29.2570   20.0740 H   0  0  0  0  0  0  0  0  0  0  0  0
   -1.2952  -30.6477   22.2128 H   0  0  0  0  0  0  0  0  0  0  0  0
   -1.8897  -27.9727   22.4374 H   0  0  0  0  0  0  0  0  0  0  0  0
   -0.4172  -25.7464   21.2518 H   0  0  0  0  0  0  0  0  0  0  0  0
  1  2  1  0
  2  3  1  0
  3  4  1  0
  4  5  2  0
  5  6  1  0
  6  7  1  0
  7  8  1  0
  8  9  2  0
  8 10  1  0
 10 11  1  0
 11 12  1  0
 12 13  2  0
 13 14  1  0
 14 15  1  0
 15 16  2  0
 16 17  1  0
 17 18  2  0
 18 19  1  0
  6  2  2  0
 19 11  2  0
 18 14  1  0
  1 20  1  0
  1 21  1  0
  1 22  1  0
  4 23  1  0
  5 24  1  0
  7 25  1  0
  7 26  1  0
 10 27  1  0
 12 28  1  0
 13 29  1  0
 16 30  1  0
 17 31  1  0
 19 32  1  0
M  END
>  <Energy>  (1056) 
525.10452638615732

>  <compound_id>  (1056) 
50558

>  <target_id>  (1056) 
1

>  <reference_id>  (1056) 
76

>  <inspiration_ids>  (1056) 
[76, 68]

>  <energy_score>  (1056) 
427.8817384930867

>  <distance_score>  (1056) 
16.881336545067104

>  <path>  (1056) 
/opt/xchem-fragalysis-2/maxwin/BulkDock/SCRATCH/511021/C50558-P76/C50558-P76.minimised.mol

>  <scratch_subdir>  (1056) 
/opt/xchem-fragalysis-2/maxwin/BulkDock/SCRATCH/511021/C50558-P76

>  <fragmenstein_runtime>  (1056) 
5.271348714828491

>  <fragmenstein_outcome>  (1056) 
too moved

>  <fragmenstein_mode>  (1056) 
expansion

>  <fragmenstein_error>  (1056) 


$$$$
C50558-P68
     RDKit          3D

 32 34  0  0  0  0  0  0  0  0999 V2000
    8.3654  -15.4550   23.2011 C   0  0  0  0  0  0  0  0  0  0  0  0
    8.4982  -16.4283   22.0688 C   0  0  0  0  0  0  0  0  0  0  0  0
    9.1857  -15.7348   20.6369 S   0  0  0  0  0  0  0  0  0  0  0  0
    9.0522  -17.2001   19.8019 C   0  0  0  0  0  0  0  0  0  0  0  0
    8.5106  -18.1970   20.5870 C   0  0  0  0  0  0  0  0  0  0  0  0
    8.1706  -17.8006   21.9353 C   0  0  0  0  0  0  0  0  0  0  0  0
    7.4807  -18.7775   23.0248 C   0  0  0  0  0  0  0  0  0  0  0  0
    7.5225  -20.4100   22.8830 C   0  0  0  0  0  0  0  0  0  0  0  0
    8.1863  -20.9082   22.0086 O   0  0  0  0  0  0  0  0  0  0  0  0
    6.7027  -21.0539   23.9831 N   0  0  0  0  0  0  0  0  0  0  0  0
    6.4043  -22.4249   24.2449 C   0  0  0  0  0  0  0  0  0  0  0  0
    6.8922  -23.5137   23.3842 C   0  0  0  0  0  0  0  0  0  0  0  0
    6.5730  -24.8069   23.6280 C   0  0  0  0  0  0  0  0  0  0  0  0
    5.7163  -25.1552   24.6751 N   0  0  0  0  0  0  0  0  0  0  0  0
    5.2088  -26.3831   24.9619 N   0  0  0  0  0  0  0  0  0  0  0  0
    4.2975  -26.1691   25.9144 C   0  0  0  0  0  0  0  0  0  0  0  0
    4.2464  -24.8192   26.3086 C   0  0  0  0  0  0  0  0  0  0  0  0
    5.1703  -24.1726   25.5043 C   0  0  0  0  0  0  0  0  0  0  0  0
    5.5855  -22.7952   25.2823 C   0  0  0  0  0  0  0  0  0  0  0  0
    7.7307  -14.6076   22.9208 H   0  0  0  0  0  0  0  0  0  0  0  0
    7.9046  -15.9409   24.0672 H   0  0  0  0  0  0  0  0  0  0  0  0
    9.3456  -15.0793   23.5130 H   0  0  0  0  0  0  0  0  0  0  0  0
    9.3789  -17.2799   18.7744 H   0  0  0  0  0  0  0  0  0  0  0  0
    8.3632  -19.2011   20.2083 H   0  0  0  0  0  0  0  0  0  0  0  0
    6.4222  -18.4906   23.0590 H   0  0  0  0  0  0  0  0  0  0  0  0
    7.9424  -18.5418   23.9915 H   0  0  0  0  0  0  0  0  0  0  0  0
    6.3389  -20.3325   24.5943 H   0  0  0  0  0  0  0  0  0  0  0  0
    7.5479  -23.2617   22.5561 H   0  0  0  0  0  0  0  0  0  0  0  0
    6.9321  -25.6275   23.0205 H   0  0  0  0  0  0  0  0  0  0  0  0
    3.7243  -27.0062   26.2921 H   0  0  0  0  0  0  0  0  0  0  0  0
    3.6067  -24.3701   27.0546 H   0  0  0  0  0  0  0  0  0  0  0  0
    5.1718  -22.0431   25.9475 H   0  0  0  0  0  0  0  0  0  0  0  0
  1  2  1  0
  2  3  1  0
  3  4  1  0
  4  5  2  0
  5  6  1  0
  6  7  1  0
  7  8  1  0
  8  9  2  0
  8 10  1  0
 10 11  1  0
 11 12  1  0
 12 13  2  0
 13 14  1  0
 14 15  1  0
 15 16  2  0
 16 17  1  0
 17 18  2  0
 18 19  1  0
  6  2  2  0
 19 11  2  0
 18 14  1  0
  1 20  1  0
  1 21  1  0
  1 22  1  0
  4 23  1  0
  5 24  1  0
  7 25  1  0
  7 26  1  0
 10 27  1  0
 12 28  1  0
 13 29  1  0
 16 30  1  0
 17 31  1  0
 19 32  1  0
M  END
>  <Energy>  (1057) 
61.33354793405239

>  <compound_id>  (1057) 
50558

>  <target_id>  (1057) 
1

>  <reference_id>  (1057) 
68

>  <inspiration_ids>  (1057) 
[76, 68]

>  <energy_score>  (1057) 
-35.88923995901865

>  <distance_score>  (1057) 
17.9575818801806

>  <path>  (1057) 
/opt/xchem-fragalysis-2/maxwin/BulkDock/SCRATCH/511021/C50558-P68/C50558-P68.minimised.mol

>  <scratch_subdir>  (1057) 
/opt/xchem-fragalysis-2/maxwin/BulkDock/SCRATCH/511021/C50558-P68

>  <fragmenstein_runtime>  (1057) 
24.615342378616333

>  <fragmenstein_outcome>  (1057) 
too moved

>  <fragmenstein_mode>  (1057) 
expansion

>  <fragmenstein_error>  (1057) 


$$$$
C50562-P76
     RDKit          3D

 37 39  0  0  0  0  0  0  0  0999 V2000
   10.8449  -11.0812   19.9881 C   0  0  0  0  0  0  0  0  0  0  0  0
    9.5435  -10.5954   20.5272 C   0  0  0  0  0  0  0  0  0  0  0  0
    8.3563  -10.3600   19.8536 C   0  0  0  0  0  0  0  0  0  0  0  0
    7.2630  -10.8379   20.6739 C   0  0  0  0  0  0  0  0  0  0  0  0
    5.9946  -11.6461   20.2095 C   0  0  0  0  0  0  0  0  0  0  0  0
    6.3156  -13.0006   20.4494 N   0  0  0  0  0  0  0  0  0  0  0  0
    5.7692  -14.5245   19.6337 C   0  0  0  0  0  0  0  0  0  0  0  0
    4.9134  -14.5560   18.7482 O   0  0  0  0  0  0  0  0  0  0  0  0
    6.3978  -16.4786   20.0747 C   0  0  0  0  0  0  0  0  0  0  0  0
    6.3835  -18.1211   21.0636 C   0  0  0  0  0  0  0  0  0  0  0  0
    5.6167  -18.7224   22.1484 C   0  0  0  0  0  0  0  0  0  0  0  0
    5.3518  -20.1253   22.4351 C   0  0  0  0  0  0  0  0  0  0  0  0
    5.9185  -21.1513   21.7507 C   0  0  0  0  0  0  0  0  0  0  0  0
    5.4979  -22.4324   21.9777 N   0  0  0  0  0  0  0  0  0  0  0  0
    6.0763  -23.4097   21.2665 C   0  0  0  0  0  0  0  0  0  0  0  0
    7.1127  -23.1517   20.3924 C   0  0  0  0  0  0  0  0  0  0  0  0
    7.5582  -21.8169   20.2240 C   0  0  0  0  0  0  0  0  0  0  0  0
    6.9305  -20.7265   20.8731 C   0  0  0  0  0  0  0  0  0  0  0  0
    7.1773  -19.2240   20.5798 C   0  0  0  0  0  0  0  0  0  0  0  0
    7.6031  -10.5996   21.9992 C   0  0  0  0  0  0  0  0  0  0  0  0
    9.3044  -10.4543   22.2075 S   0  0  0  0  0  0  0  0  0  0  0  0
   10.8322  -12.1788   19.9988 H   0  0  0  0  0  0  0  0  0  0  0  0
   10.9915  -10.7992   18.9482 H   0  0  0  0  0  0  0  0  0  0  0  0
   11.6983  -10.7890   20.6044 H   0  0  0  0  0  0  0  0  0  0  0  0
    8.3293  -10.3088   18.7732 H   0  0  0  0  0  0  0  0  0  0  0  0
    5.2259  -11.4535   20.9315 H   0  0  0  0  0  0  0  0  0  0  0  0
    5.7693  -11.5483   19.1855 H   0  0  0  0  0  0  0  0  0  0  0  0
    7.0904  -13.2141   21.0773 H   0  0  0  0  0  0  0  0  0  0  0  0
    5.9597  -16.9525   19.2139 H   0  0  0  0  0  0  0  0  0  0  0  0
    7.5033  -16.5898   19.8909 H   0  0  0  0  0  0  0  0  0  0  0  0
    5.0509  -18.2441   22.9358 H   0  0  0  0  0  0  0  0  0  0  0  0
    4.6224  -20.3617   23.2105 H   0  0  0  0  0  0  0  0  0  0  0  0
    5.6971  -24.4115   21.4332 H   0  0  0  0  0  0  0  0  0  0  0  0
    7.5820  -23.9599   19.8418 H   0  0  0  0  0  0  0  0  0  0  0  0
    8.3620  -21.6231   19.5172 H   0  0  0  0  0  0  0  0  0  0  0  0
    7.9159  -19.0176   19.8023 H   0  0  0  0  0  0  0  0  0  0  0  0
    6.9858  -10.7116   22.8788 H   0  0  0  0  0  0  0  0  0  0  0  0
  1  2  1  0
  2  3  2  0
  3  4  1  0
  4  5  1  0
  5  6  1  0
  6  7  1  0
  7  8  2  0
  7  9  1  0
  9 10  1  0
 10 11  2  0
 11 12  1  0
 12 13  2  0
 13 14  1  0
 14 15  2  0
 15 16  1  0
 16 17  2  0
 17 18  1  0
 18 19  2  0
  4 20  2  0
 20 21  1  0
 21  2  1  0
 19 10  1  0
 18 13  1  0
  1 22  1  0
  1 23  1  0
  1 24  1  0
  3 25  1  0
  5 26  1  0
  5 27  1  0
  6 28  1  0
  9 29  1  0
  9 30  1  0
 11 31  1  0
 12 32  1  0
 15 33  1  0
 16 34  1  0
 17 35  1  0
 19 36  1  0
 20 37  1  0
M  END
>  <Energy>  (1058) 
340.9788129929438

>  <compound_id>  (1058) 
50562

>  <target_id>  (1058) 
1

>  <reference_id>  (1058) 
76

>  <inspiration_ids>  (1058) 
[76, 68]

>  <energy_score>  (1058) 
282.1704148631467

>  <distance_score>  (1058) 
19.208830866554184

>  <path>  (1058) 
/opt/xchem-fragalysis-2/maxwin/BulkDock/SCRATCH/511021/C50562-P76/C50562-P76.minimised.mol

>  <scratch_subdir>  (1058) 
/opt/xchem-fragalysis-2/maxwin/BulkDock/SCRATCH/511021/C50562-P76

>  <fragmenstein_runtime>  (1058) 
8.326597213745117

>  <fragmenstein_outcome>  (1058) 
too moved

>  <fragmenstein_mode>  (1058) 
expansion

>  <fragmenstein_error>  (1058) 


$$$$
C50562-P68
     RDKit          3D

 37 39  0  0  0  0  0  0  0  0999 V2000
    2.1129  -20.3733   17.7407 C   0  0  0  0  0  0  0  0  0  0  0  0
    1.7542  -21.4405   18.7529 C   0  0  0  0  0  0  0  0  0  0  0  0
    0.8699  -21.4890   19.8334 C   0  0  0  0  0  0  0  0  0  0  0  0
    0.8330  -22.7706   20.5605 C   0  0  0  0  0  0  0  0  0  0  0  0
    0.0561  -23.1087   21.8729 C   0  0  0  0  0  0  0  0  0  0  0  0
   -0.9960  -24.1748   21.9114 N   0  0  0  0  0  0  0  0  0  0  0  0
   -1.4588  -25.0526   23.0339 C   0  0  0  0  0  0  0  0  0  0  0  0
   -1.0424  -25.1701   24.1562 O   0  0  0  0  0  0  0  0  0  0  0  0
   -2.7776  -25.8620   22.6616 C   0  0  0  0  0  0  0  0  0  0  0  0
   -3.3802  -27.0098   23.5766 C   0  0  0  0  0  0  0  0  0  0  0  0
   -2.6611  -28.1669   23.8971 C   0  0  0  0  0  0  0  0  0  0  0  0
   -3.3255  -29.3885   24.2603 C   0  0  0  0  0  0  0  0  0  0  0  0
   -4.7512  -29.5797   24.1935 C   0  0  0  0  0  0  0  0  0  0  0  0
   -5.8810  -30.7418   23.4906 N   0  0  0  0  0  0  0  0  0  0  0  0
   -6.0602  -31.7227   21.6335 C   0  0  0  0  0  0  0  0  0  0  0  0
   -6.4974  -30.6228   23.4804 C   0  0  0  0  0  0  0  0  0  0  0  0
   -6.5866  -28.9264   24.0829 C   0  0  0  0  0  0  0  0  0  0  0  0
   -5.3612  -28.4052   24.1758 C   0  0  0  0  0  0  0  0  0  0  0  0
   -4.7612  -27.1034   23.8645 C   0  0  0  0  0  0  0  0  0  0  0  0
    1.7865  -23.5908   19.9860 C   0  0  0  0  0  0  0  0  0  0  0  0
    2.5648  -22.9423   18.6088 S   0  0  0  0  0  0  0  0  0  0  0  0
    1.6467  -19.4225   17.9844 H   0  0  0  0  0  0  0  0  0  0  0  0
    3.1846  -20.2538   17.6064 H   0  0  0  0  0  0  0  0  0  0  0  0
    1.7750  -20.7099   16.7613 H   0  0  0  0  0  0  0  0  0  0  0  0
    0.2518  -20.6665   20.1461 H   0  0  0  0  0  0  0  0  0  0  0  0
    0.7863  -23.3629   22.6504 H   0  0  0  0  0  0  0  0  0  0  0  0
   -0.4510  -22.1950   22.2051 H   0  0  0  0  0  0  0  0  0  0  0  0
   -1.6305  -24.2732   21.1281 H   0  0  0  0  0  0  0  0  0  0  0  0
   -2.6182  -26.3124   21.6737 H   0  0  0  0  0  0  0  0  0  0  0  0
   -3.5610  -25.1007   22.5514 H   0  0  0  0  0  0  0  0  0  0  0  0
   -1.5812  -28.1914   23.7544 H   0  0  0  0  0  0  0  0  0  0  0  0
   -2.7055  -30.2823   24.3252 H   0  0  0  0  0  0  0  0  0  0  0  0
   -5.6706  -31.3610   20.5861 H   0  0  0  0  0  0  0  0  0  0  0  0
   -7.6047  -30.8871   24.0274 H   0  0  0  0  0  0  0  0  0  0  0  0
   -7.4902  -28.3761   23.8575 H   0  0  0  0  0  0  0  0  0  0  0  0
   -5.4307  -26.2759   23.6406 H   0  0  0  0  0  0  0  0  0  0  0  0
    2.0625  -24.5848   20.3109 H   0  0  0  0  0  0  0  0  0  0  0  0
  1  2  1  0
  2  3  2  0
  3  4  1  0
  4  5  1  0
  5  6  1  0
  6  7  1  0
  7  8  2  0
  7  9  1  0
  9 10  1  0
 10 11  2  0
 11 12  1  0
 12 13  2  0
 13 14  1  0
 14 15  2  0
 15 16  1  0
 16 17  2  0
 17 18  1  0
 18 19  2  0
  4 20  2  0
 20 21  1  0
 21  2  1  0
 19 10  1  0
 18 13  1  0
  1 22  1  0
  1 23  1  0
  1 24  1  0
  3 25  1  0
  5 26  1  0
  5 27  1  0
  6 28  1  0
  9 29  1  0
  9 30  1  0
 11 31  1  0
 12 32  1  0
 15 33  1  0
 16 34  1  0
 17 35  1  0
 19 36  1  0
 20 37  1  0
M  END
>  <Energy>  (1059) 
1246.6817360294485

>  <compound_id>  (1059) 
50562

>  <target_id>  (1059) 
1

>  <reference_id>  (1059) 
68

>  <inspiration_ids>  (1059) 
[76, 68]

>  <energy_score>  (1059) 
1187.8733378996435

>  <distance_score>  (1059) 
16.22894899039667

>  <path>  (1059) 
/opt/xchem-fragalysis-2/maxwin/BulkDock/SCRATCH/511021/C50562-P68/C50562-P68.minimised.mol

>  <scratch_subdir>  (1059) 
/opt/xchem-fragalysis-2/maxwin/BulkDock/SCRATCH/511021/C50562-P68

>  <fragmenstein_runtime>  (1059) 
19.38759469985962

>  <fragmenstein_outcome>  (1059) 
too moved

>  <fragmenstein_mode>  (1059) 
expansion

>  <fragmenstein_error>  (1059) 


$$$$
C50566-P76
     RDKit          3D

 47 49  0  0  0  0  0  0  0  0999 V2000
   14.2665   -2.8910   17.2957 C   0  0  0  0  0  0  0  0  0  0  0  0
   13.0649   -3.7732   17.3313 C   0  0  0  0  0  0  0  0  0  0  0  0
   12.1722   -4.0378   16.3236 C   0  0  0  0  0  0  0  0  0  0  0  0
   11.5670   -5.2846   16.6218 C   0  0  0  0  0  0  0  0  0  0  0  0
   10.8285   -5.3014   17.8480 C   0  0  0  0  0  0  0  0  0  0  0  0
    9.5840   -6.2485   19.0808 C   0  0  0  0  0  0  0  0  0  0  0  0
    9.9496   -5.5874   20.0681 O   0  0  0  0  0  0  0  0  0  0  0  0
    8.9656   -8.3795   19.4743 C   0  0  0  0  0  0  0  0  0  0  0  0
    7.5477  -10.1308   19.3256 C   0  0  0  0  0  0  0  0  0  0  0  0
    5.9416  -11.5651   19.8883 C   0  0  0  0  0  0  0  0  0  0  0  0
    5.7550  -11.4373   18.6268 O   0  0  0  0  0  0  0  0  0  0  0  0
    4.2643  -13.0419   19.8295 C   0  0  0  0  0  0  0  0  0  0  0  0
    2.5468  -14.5501   19.9570 C   0  0  0  0  0  0  0  0  0  0  0  0
    0.9599  -16.0305   20.5974 C   0  0  0  0  0  0  0  0  0  0  0  0
   -0.0171  -15.8380   20.0689 O   0  0  0  0  0  0  0  0  0  0  0  0
    0.7989  -17.5766   21.6109 N   0  0  0  0  0  0  0  0  0  0  0  0
   -0.2726  -18.5776   21.7496 C   0  0  0  0  0  0  0  0  0  0  0  0
   -0.0556  -19.5423   22.7660 C   0  0  0  0  0  0  0  0  0  0  0  0
   -0.7755  -20.7676   22.8936 C   0  0  0  0  0  0  0  0  0  0  0  0
   -1.7525  -21.1509   21.9987 C   0  0  0  0  0  0  0  0  0  0  0  0
   -2.3437  -22.3711   22.1338 N   0  0  0  0  0  0  0  0  0  0  0  0
   -3.2573  -22.7368   21.2140 C   0  0  0  0  0  0  0  0  0  0  0  0
   -3.6199  -21.9179   20.1630 C   0  0  0  0  0  0  0  0  0  0  0  0
   -3.0096  -20.6528   20.0502 C   0  0  0  0  0  0  0  0  0  0  0  0
   -2.0342  -20.2193   20.9710 C   0  0  0  0  0  0  0  0  0  0  0  0
   -1.3067  -18.9328   20.8701 C   0  0  0  0  0  0  0  0  0  0  0  0
   12.7568   -4.7328   18.7298 S   0  0  0  0  0  0  0  0  0  0  0  0
   15.1704   -3.4913   17.1470 H   0  0  0  0  0  0  0  0  0  0  0  0
   14.2001   -2.1763   16.4690 H   0  0  0  0  0  0  0  0  0  0  0  0
   14.3804   -2.3221   18.2234 H   0  0  0  0  0  0  0  0  0  0  0  0
   12.3366   -3.6336   15.3329 H   0  0  0  0  0  0  0  0  0  0  0  0
   11.4445   -6.1310   15.9837 H   0  0  0  0  0  0  0  0  0  0  0  0
    9.4656   -8.3494   20.4398 H   0  0  0  0  0  0  0  0  0  0  0  0
    9.8778   -8.8062   19.3219 H   0  0  0  0  0  0  0  0  0  0  0  0
    7.6107  -10.2515   18.2401 H   0  0  0  0  0  0  0  0  0  0  0  0
    8.3328  -10.8421   19.3378 H   0  0  0  0  0  0  0  0  0  0  0  0
    4.2587  -12.9546   20.9211 H   0  0  0  0  0  0  0  0  0  0  0  0
    4.9918  -13.7248   19.3639 H   0  0  0  0  0  0  0  0  0  0  0  0
    2.1527  -14.2444   18.9280 H   0  0  0  0  0  0  0  0  0  0  0  0
    3.0119  -15.2093   19.1407 H   0  0  0  0  0  0  0  0  0  0  0  0
    1.6349  -17.6780   22.1318 H   0  0  0  0  0  0  0  0  0  0  0  0
    0.7455  -19.3704   23.4849 H   0  0  0  0  0  0  0  0  0  0  0  0
   -0.5125  -21.4459   23.7023 H   0  0  0  0  0  0  0  0  0  0  0  0
   -3.6978  -23.7188   21.3502 H   0  0  0  0  0  0  0  0  0  0  0  0
   -4.3606  -22.2390   19.4392 H   0  0  0  0  0  0  0  0  0  0  0  0
   -3.2872  -20.0062   19.2200 H   0  0  0  0  0  0  0  0  0  0  0  0
   -1.5102  -18.2809   20.0212 H   0  0  0  0  0  0  0  0  0  0  0  0
  1  2  1  0
  2  3  2  0
  3  4  1  0
  4  5  2  0
  5  6  1  0
  6  7  2  0
  6  8  1  0
  8  9  1  0
  9 10  1  0
 10 11  2  0
 10 12  1  0
 12 13  1  0
 13 14  1  0
 14 15  2  0
 14 16  1  0
 16 17  1  0
 17 18  2  0
 18 19  1  0
 19 20  2  0
 20 21  1  0
 21 22  2  0
 22 23  1  0
 23 24  2  0
 24 25  1  0
 25 26  2  0
  5 27  1  0
 27  2  1  0
 26 17  1  0
 25 20  1  0
  1 28  1  0
  1 29  1  0
  1 30  1  0
  3 31  1  0
  4 32  1  0
  8 33  1  0
  8 34  1  0
  9 35  1  0
  9 36  1  0
 12 37  1  0
 12 38  1  0
 13 39  1  0
 13 40  1  0
 16 41  1  0
 18 42  1  0
 19 43  1  0
 22 44  1  0
 23 45  1  0
 24 46  1  0
 26 47  1  0
M  END
>  <Energy>  (1060) 
1674.1725415767669

>  <compound_id>  (1060) 
50566

>  <target_id>  (1060) 
1

>  <reference_id>  (1060) 
76

>  <inspiration_ids>  (1060) 
[76, 68]

>  <energy_score>  (1060) 
1621.9334863728814

>  <distance_score>  (1060) 
14.85668311860747

>  <path>  (1060) 
/opt/xchem-fragalysis-2/maxwin/BulkDock/SCRATCH/511021/C50566-P76/C50566-P76.minimised.mol

>  <scratch_subdir>  (1060) 
/opt/xchem-fragalysis-2/maxwin/BulkDock/SCRATCH/511021/C50566-P76

>  <fragmenstein_runtime>  (1060) 
9.731601238250732

>  <fragmenstein_outcome>  (1060) 
too moved

>  <fragmenstein_mode>  (1060) 
expansion

>  <fragmenstein_error>  (1060) 


$$$$
C50566-P68
     RDKit          3D

 47 49  0  0  0  0  0  0  0  0999 V2000
   14.6267  -12.6827   18.0371 C   0  0  0  0  0  0  0  0  0  0  0  0
   14.0159  -12.3953   16.7071 C   0  0  0  0  0  0  0  0  0  0  0  0
   14.6381  -12.3104   15.4774 C   0  0  0  0  0  0  0  0  0  0  0  0
   13.7223  -11.9985   14.4324 C   0  0  0  0  0  0  0  0  0  0  0  0
   12.4158  -11.9621   14.8788 C   0  0  0  0  0  0  0  0  0  0  0  0
   11.2299  -11.8400   14.0455 C   0  0  0  0  0  0  0  0  0  0  0  0
   11.2711  -11.2819   12.9457 O   0  0  0  0  0  0  0  0  0  0  0  0
    9.9270  -12.4840   14.5176 C   0  0  0  0  0  0  0  0  0  0  0  0
    9.9005  -14.0424   14.6181 C   0  0  0  0  0  0  0  0  0  0  0  0
    8.4902  -14.7463   14.4071 C   0  0  0  0  0  0  0  0  0  0  0  0
    7.5870  -14.1336   13.8315 O   0  0  0  0  0  0  0  0  0  0  0  0
    8.2581  -16.3377   14.9016 C   0  0  0  0  0  0  0  0  0  0  0  0
    6.7675  -17.0673   15.0091 C   0  0  0  0  0  0  0  0  0  0  0  0
    6.5827  -18.5567   15.7657 C   0  0  0  0  0  0  0  0  0  0  0  0
    7.6003  -19.1318   16.0663 O   0  0  0  0  0  0  0  0  0  0  0  0
    5.1288  -18.9813   15.9098 N   0  0  0  0  0  0  0  0  0  0  0  0
    4.5270  -20.2211   16.4752 C   0  0  0  0  0  0  0  0  0  0  0  0
    5.2386  -21.2869   17.0271 C   0  0  0  0  0  0  0  0  0  0  0  0
    4.5977  -22.4759   17.5487 C   0  0  0  0  0  0  0  0  0  0  0  0
    3.2182  -22.6984   17.5619 C   0  0  0  0  0  0  0  0  0  0  0  0
    2.6818  -23.8543   18.0602 N   0  0  0  0  0  0  0  0  0  0  0  0
    1.3406  -24.0168   18.0258 C   0  0  0  0  0  0  0  0  0  0  0  0
    0.4910  -23.0583   17.5150 C   0  0  0  0  0  0  0  0  0  0  0  0
    1.0555  -21.8698   17.0163 C   0  0  0  0  0  0  0  0  0  0  0  0
    2.4523  -21.6530   17.0212 C   0  0  0  0  0  0  0  0  0  0  0  0
    3.1126  -20.4429   16.4976 C   0  0  0  0  0  0  0  0  0  0  0  0
   12.3380  -12.0916   16.5800 S   0  0  0  0  0  0  0  0  0  0  0  0
   14.1731  -13.5712   18.4885 H   0  0  0  0  0  0  0  0  0  0  0  0
   14.4905  -11.8359   18.7176 H   0  0  0  0  0  0  0  0  0  0  0  0
   15.7018  -12.8666   17.9415 H   0  0  0  0  0  0  0  0  0  0  0  0
   15.7037  -12.4543   15.3342 H   0  0  0  0  0  0  0  0  0  0  0  0
   13.9934  -11.8998   13.3865 H   0  0  0  0  0  0  0  0  0  0  0  0
    9.6765  -12.0518   15.4896 H   0  0  0  0  0  0  0  0  0  0  0  0
    9.1665  -12.1619   13.7975 H   0  0  0  0  0  0  0  0  0  0  0  0
   10.5722  -14.4744   13.8678 H   0  0  0  0  0  0  0  0  0  0  0  0
   10.2634  -14.3455   15.6059 H   0  0  0  0  0  0  0  0  0  0  0  0
    8.7359  -16.4186   15.8832 H   0  0  0  0  0  0  0  0  0  0  0  0
    8.8536  -16.9438   14.2081 H   0  0  0  0  0  0  0  0  0  0  0  0
    6.4011  -17.1995   13.9842 H   0  0  0  0  0  0  0  0  0  0  0  0
    6.0815  -16.3909   15.5154 H   0  0  0  0  0  0  0  0  0  0  0  0
    4.5325  -18.2857   15.4766 H   0  0  0  0  0  0  0  0  0  0  0  0
    6.3265  -21.2384   17.0694 H   0  0  0  0  0  0  0  0  0  0  0  0
    5.2404  -23.2568   17.9556 H   0  0  0  0  0  0  0  0  0  0  0  0
    0.9699  -24.9540   18.4281 H   0  0  0  0  0  0  0  0  0  0  0  0
   -0.5817  -23.2137   17.5008 H   0  0  0  0  0  0  0  0  0  0  0  0
    0.3944  -21.1054   16.6129 H   0  0  0  0  0  0  0  0  0  0  0  0
    2.4674  -19.6627   16.0918 H   0  0  0  0  0  0  0  0  0  0  0  0
  1  2  1  0
  2  3  2  0
  3  4  1  0
  4  5  2  0
  5  6  1  0
  6  7  2  0
  6  8  1  0
  8  9  1  0
  9 10  1  0
 10 11  2  0
 10 12  1  0
 12 13  1  0
 13 14  1  0
 14 15  2  0
 14 16  1  0
 16 17  1  0
 17 18  2  0
 18 19  1  0
 19 20  2  0
 20 21  1  0
 21 22  2  0
 22 23  1  0
 23 24  2  0
 24 25  1  0
 25 26  2  0
  5 27  1  0
 27  2  1  0
 26 17  1  0
 25 20  1  0
  1 28  1  0
  1 29  1  0
  1 30  1  0
  3 31  1  0
  4 32  1  0
  8 33  1  0
  8 34  1  0
  9 35  1  0
  9 36  1  0
 12 37  1  0
 12 38  1  0
 13 39  1  0
 13 40  1  0
 16 41  1  0
 18 42  1  0
 19 43  1  0
 22 44  1  0
 23 45  1  0
 24 46  1  0
 26 47  1  0
M  END
>  <Energy>  (1061) 
71.921175261572373

>  <compound_id>  (1061) 
50566

>  <target_id>  (1061) 
1

>  <reference_id>  (1061) 
68

>  <inspiration_ids>  (1061) 
[76, 68]

>  <energy_score>  (1061) 
19.682120057696466

>  <distance_score>  (1061) 
17.287321189890346

>  <path>  (1061) 
/opt/xchem-fragalysis-2/maxwin/BulkDock/SCRATCH/511021/C50566-P68/C50566-P68.minimised.mol

>  <scratch_subdir>  (1061) 
/opt/xchem-fragalysis-2/maxwin/BulkDock/SCRATCH/511021/C50566-P68

>  <fragmenstein_runtime>  (1061) 
29.966392278671265

>  <fragmenstein_outcome>  (1061) 
too moved

>  <fragmenstein_mode>  (1061) 
expansion

>  <fragmenstein_error>  (1061) 


$$$$
C50567-P76
     RDKit          3D

 33 35  0  0  0  0  0  0  0  0999 V2000
    8.7645  -20.5030   19.3871 C   0  0  0  0  0  0  0  0  0  0  0  0
    7.8323  -21.5618   18.8196 C   0  0  0  0  0  0  0  0  0  0  0  0
    7.5348  -21.7831   17.4909 C   0  0  0  0  0  0  0  0  0  0  0  0
    6.4102  -22.6675   17.3371 C   0  0  0  0  0  0  0  0  0  0  0  0
    5.8710  -23.2055   18.5212 C   0  0  0  0  0  0  0  0  0  0  0  0
    4.6154  -24.0678   18.5548 C   0  0  0  0  0  0  0  0  0  0  0  0
    3.9728  -24.2493   17.5202 O   0  0  0  0  0  0  0  0  0  0  0  0
    4.1761  -24.6484   19.7585 O   0  0  0  0  0  0  0  0  0  0  0  0
    2.6993  -24.9416   19.8414 C   0  0  0  0  0  0  0  0  0  0  0  0
    2.0086  -26.3125   20.2425 C   0  0  0  0  0  0  0  0  0  0  0  0
    2.6702  -27.5204   20.4402 C   0  0  0  0  0  0  0  0  0  0  0  0
    1.9587  -28.7154   20.7707 C   0  0  0  0  0  0  0  0  0  0  0  0
    0.5711  -28.7867   20.9139 C   0  0  0  0  0  0  0  0  0  0  0  0
   -0.0441  -29.9608   21.2169 N   0  0  0  0  0  0  0  0  0  0  0  0
   -1.3922  -29.9748   21.3151 C   0  0  0  0  0  0  0  0  0  0  0  0
   -2.1745  -28.8531   21.1305 C   0  0  0  0  0  0  0  0  0  0  0  0
   -1.5317  -27.6469   20.8335 C   0  0  0  0  0  0  0  0  0  0  0  0
   -0.1297  -27.5863   20.7154 C   0  0  0  0  0  0  0  0  0  0  0  0
    0.5886  -26.3796   20.3925 C   0  0  0  0  0  0  0  0  0  0  0  0
    6.8433  -22.6114   19.8288 S   0  0  0  0  0  0  0  0  0  0  0  0
    9.6136  -20.9840   19.8820 H   0  0  0  0  0  0  0  0  0  0  0  0
    9.1450  -19.8561   18.5905 H   0  0  0  0  0  0  0  0  0  0  0  0
    8.2355  -19.8799   20.1148 H   0  0  0  0  0  0  0  0  0  0  0  0
    8.0236  -21.2765   16.6675 H   0  0  0  0  0  0  0  0  0  0  0  0
    5.9743  -22.9027   16.3707 H   0  0  0  0  0  0  0  0  0  0  0  0
    2.2188  -24.6347   18.9053 H   0  0  0  0  0  0  0  0  0  0  0  0
    2.3589  -24.2325   20.6072 H   0  0  0  0  0  0  0  0  0  0  0  0
    3.7533  -27.5660   20.3404 H   0  0  0  0  0  0  0  0  0  0  0  0
    2.5317  -29.6307   20.9134 H   0  0  0  0  0  0  0  0  0  0  0  0
   -1.8324  -30.9388   21.5508 H   0  0  0  0  0  0  0  0  0  0  0  0
   -3.2538  -28.9063   21.2154 H   0  0  0  0  0  0  0  0  0  0  0  0
   -2.1300  -26.7512   20.6849 H   0  0  0  0  0  0  0  0  0  0  0  0
    0.0141  -25.4649   20.2375 H   0  0  0  0  0  0  0  0  0  0  0  0
  1  2  1  0
  2  3  2  0
  3  4  1  0
  4  5  2  0
  5  6  1  0
  6  7  2  0
  6  8  1  0
  8  9  1  0
  9 10  1  0
 10 11  2  0
 11 12  1  0
 12 13  2  0
 13 14  1  0
 14 15  2  0
 15 16  1  0
 16 17  2  0
 17 18  1  0
 18 19  2  0
  5 20  1  0
 20  2  1  0
 19 10  1  0
 18 13  1  0
  1 21  1  0
  1 22  1  0
  1 23  1  0
  3 24  1  0
  4 25  1  0
  9 26  1  0
  9 27  1  0
 11 28  1  0
 12 29  1  0
 15 30  1  0
 16 31  1  0
 17 32  1  0
 19 33  1  0
M  END
>  <Energy>  (1062) 
77.987859030543035

>  <compound_id>  (1062) 
50567

>  <target_id>  (1062) 
1

>  <reference_id>  (1062) 
76

>  <inspiration_ids>  (1062) 
[76, 68]

>  <energy_score>  (1062) 
0.990627471540904

>  <distance_score>  (1062) 
17.04093999615997

>  <path>  (1062) 
/opt/xchem-fragalysis-2/maxwin/BulkDock/SCRATCH/511021/C50567-P76/C50567-P76.minimised.mol

>  <scratch_subdir>  (1062) 
/opt/xchem-fragalysis-2/maxwin/BulkDock/SCRATCH/511021/C50567-P76

>  <fragmenstein_runtime>  (1062) 
6.593698501586914

>  <fragmenstein_outcome>  (1062) 
too moved

>  <fragmenstein_mode>  (1062) 
expansion

>  <fragmenstein_error>  (1062) 


$$$$
C50567-P68
     RDKit          3D

 33 35  0  0  0  0  0  0  0  0999 V2000
   -3.1133  -13.7859   19.0387 C   0  0  0  0  0  0  0  0  0  0  0  0
   -3.3395  -15.1542   19.6456 C   0  0  0  0  0  0  0  0  0  0  0  0
   -3.0776  -15.6218   20.9174 C   0  0  0  0  0  0  0  0  0  0  0  0
   -3.5209  -16.9911   21.1233 C   0  0  0  0  0  0  0  0  0  0  0  0
   -4.1096  -17.5845   20.0144 C   0  0  0  0  0  0  0  0  0  0  0  0
   -4.6732  -18.9464   19.7246 C   0  0  0  0  0  0  0  0  0  0  0  0
   -5.1486  -19.2401   18.6288 O   0  0  0  0  0  0  0  0  0  0  0  0
   -4.6299  -19.9067   20.7663 O   0  0  0  0  0  0  0  0  0  0  0  0
   -5.1224  -21.2341   20.3173 C   0  0  0  0  0  0  0  0  0  0  0  0
   -5.3042  -22.4885   21.2482 C   0  0  0  0  0  0  0  0  0  0  0  0
   -6.5260  -22.7696   21.8778 C   0  0  0  0  0  0  0  0  0  0  0  0
   -6.7618  -24.0053   22.5378 C   0  0  0  0  0  0  0  0  0  0  0  0
   -5.8153  -25.0235   22.6052 C   0  0  0  0  0  0  0  0  0  0  0  0
   -6.1012  -26.1952   23.2263 N   0  0  0  0  0  0  0  0  0  0  0  0
   -5.1488  -27.1518   23.2582 C   0  0  0  0  0  0  0  0  0  0  0  0
   -3.9078  -27.0044   22.6729 C   0  0  0  0  0  0  0  0  0  0  0  0
   -3.6250  -25.7990   22.0285 C   0  0  0  0  0  0  0  0  0  0  0  0
   -4.5817  -24.7708   21.9813 C   0  0  0  0  0  0  0  0  0  0  0  0
   -4.3404  -23.5188   21.3224 C   0  0  0  0  0  0  0  0  0  0  0  0
   -4.1010  -16.3909   18.7240 S   0  0  0  0  0  0  0  0  0  0  0  0
   -2.4610  -13.8442   18.1638 H   0  0  0  0  0  0  0  0  0  0  0  0
   -4.0737  -13.3752   18.7056 H   0  0  0  0  0  0  0  0  0  0  0  0
   -2.7161  -13.0884   19.7812 H   0  0  0  0  0  0  0  0  0  0  0  0
   -2.6219  -15.0219   21.6949 H   0  0  0  0  0  0  0  0  0  0  0  0
   -3.4168  -17.5310   22.0564 H   0  0  0  0  0  0  0  0  0  0  0  0
   -4.4499  -21.5541   19.5096 H   0  0  0  0  0  0  0  0  0  0  0  0
   -6.1101  -21.0734   19.8632 H   0  0  0  0  0  0  0  0  0  0  0  0
   -7.3374  -22.0445   21.8345 H   0  0  0  0  0  0  0  0  0  0  0  0
   -7.7356  -24.1750   22.9950 H   0  0  0  0  0  0  0  0  0  0  0  0
   -5.4199  -28.0582   23.7903 H   0  0  0  0  0  0  0  0  0  0  0  0
   -3.1667  -27.7937   22.7260 H   0  0  0  0  0  0  0  0  0  0  0  0
   -2.6503  -25.6614   21.5654 H   0  0  0  0  0  0  0  0  0  0  0  0
   -3.3813  -23.3701   20.8245 H   0  0  0  0  0  0  0  0  0  0  0  0
  1  2  1  0
  2  3  2  0
  3  4  1  0
  4  5  2  0
  5  6  1  0
  6  7  2  0
  6  8  1  0
  8  9  1  0
  9 10  1  0
 10 11  2  0
 11 12  1  0
 12 13  2  0
 13 14  1  0
 14 15  2  0
 15 16  1  0
 16 17  2  0
 17 18  1  0
 18 19  2  0
  5 20  1  0
 20  2  1  0
 19 10  1  0
 18 13  1  0
  1 21  1  0
  1 22  1  0
  1 23  1  0
  3 24  1  0
  4 25  1  0
  9 26  1  0
  9 27  1  0
 11 28  1  0
 12 29  1  0
 15 30  1  0
 16 31  1  0
 17 32  1  0
 19 33  1  0
M  END
>  <Energy>  (1063) 
65.771606250597557

>  <compound_id>  (1063) 
50567

>  <target_id>  (1063) 
1

>  <reference_id>  (1063) 
68

>  <inspiration_ids>  (1063) 
[76, 68]

>  <energy_score>  (1063) 
-11.225625308399628

>  <distance_score>  (1063) 
16.901625007127393

>  <path>  (1063) 
/opt/xchem-fragalysis-2/maxwin/BulkDock/SCRATCH/511021/C50567-P68/C50567-P68.minimised.mol

>  <scratch_subdir>  (1063) 
/opt/xchem-fragalysis-2/maxwin/BulkDock/SCRATCH/511021/C50567-P68

>  <fragmenstein_runtime>  (1063) 
11.823464632034302

>  <fragmenstein_outcome>  (1063) 
too moved

>  <fragmenstein_mode>  (1063) 
expansion

>  <fragmenstein_error>  (1063) 


$$$$
C50568-P76
     RDKit          3D

 32 34  0  0  0  0  0  0  0  0999 V2000
    0.0069  -22.8800   20.1783 C   0  0  0  0  0  0  0  0  0  0  0  0
    0.9032  -21.9152   19.4272 C   0  0  0  0  0  0  0  0  0  0  0  0
    0.9858  -20.5226   19.4780 C   0  0  0  0  0  0  0  0  0  0  0  0
    1.9573  -19.9187   18.5152 C   0  0  0  0  0  0  0  0  0  0  0  0
    1.8290  -18.0031   17.8401 S   0  0  0  0  0  0  0  0  0  0  0  0
    0.4902  -18.0953   18.4669 O   0  0  0  0  0  0  0  0  0  0  0  0
    1.9949  -18.3913   16.4417 O   0  0  0  0  0  0  0  0  0  0  0  0
    2.6552  -15.7584   18.1632 N   0  0  0  0  0  0  0  0  0  0  0  0
    4.0642  -14.4022   18.6244 C   0  0  0  0  0  0  0  0  0  0  0  0
    4.0459  -12.9487   18.7063 C   0  0  0  0  0  0  0  0  0  0  0  0
    5.4423  -11.8421   19.2038 C   0  0  0  0  0  0  0  0  0  0  0  0
    6.5665  -11.6233   19.9278 C   0  0  0  0  0  0  0  0  0  0  0  0
    7.7494  -10.6614   19.4393 N   0  0  0  0  0  0  0  0  0  0  0  0
    9.0992  -11.1418   19.4237 C   0  0  0  0  0  0  0  0  0  0  0  0
    9.4573  -12.3081   20.1829 C   0  0  0  0  0  0  0  0  0  0  0  0
    8.3210  -12.8911   20.9566 C   0  0  0  0  0  0  0  0  0  0  0  0
    6.6222  -12.7586   20.5772 C   0  0  0  0  0  0  0  0  0  0  0  0
    5.4171  -13.8497   19.7348 C   0  0  0  0  0  0  0  0  0  0  0  0
    2.4738  -20.9467   17.7356 C   0  0  0  0  0  0  0  0  0  0  0  0
    1.9902  -22.5263   18.2495 S   0  0  0  0  0  0  0  0  0  0  0  0
   -0.6602  -23.4003   19.4839 H   0  0  0  0  0  0  0  0  0  0  0  0
    0.6076  -23.6175   20.7199 H   0  0  0  0  0  0  0  0  0  0  0  0
   -0.6073  -22.3380   20.9045 H   0  0  0  0  0  0  0  0  0  0  0  0
    0.3308  -19.9239   20.1007 H   0  0  0  0  0  0  0  0  0  0  0  0
    2.3327  -15.3484   17.2641 H   0  0  0  0  0  0  0  0  0  0  0  0
    3.4312  -12.3551   18.0450 H   0  0  0  0  0  0  0  0  0  0  0  0
    5.6359  -10.8726   18.7358 H   0  0  0  0  0  0  0  0  0  0  0  0
    9.8411  -10.5985   18.8873 H   0  0  0  0  0  0  0  0  0  0  0  0
   10.4741  -12.6678   20.2753 H   0  0  0  0  0  0  0  0  0  0  0  0
    8.6839  -13.7914   21.4327 H   0  0  0  0  0  0  0  0  0  0  0  0
    4.7113  -13.2967   20.5897 H   0  0  0  0  0  0  0  0  0  0  0  0
    3.0828  -20.8488   16.8493 H   0  0  0  0  0  0  0  0  0  0  0  0
  1  2  1  0
  2  3  2  0
  3  4  1  0
  4  5  1  0
  5  6  2  0
  5  7  2  0
  5  8  1  0
  8  9  1  0
  9 10  2  0
 10 11  1  0
 11 12  2  0
 12 13  1  0
 13 14  2  0
 14 15  1  0
 15 16  2  0
 16 17  1  0
 17 18  2  0
  4 19  2  0
 19 20  1  0
 20  2  1  0
 18  9  1  0
 17 12  1  0
  1 21  1  0
  1 22  1  0
  1 23  1  0
  3 24  1  0
  8 25  1  0
 10 26  1  0
 11 27  1  0
 14 28  1  0
 15 29  1  0
 16 30  1  0
 18 31  1  0
 19 32  1  0
M  END
>  <Energy>  (1064) 
819.71833643203115

>  <compound_id>  (1064) 
50568

>  <target_id>  (1064) 
1

>  <reference_id>  (1064) 
76

>  <inspiration_ids>  (1064) 
[76, 68]

>  <energy_score>  (1064) 
787.315425601762

>  <distance_score>  (1064) 
17.11801825406465

>  <path>  (1064) 
/opt/xchem-fragalysis-2/maxwin/BulkDock/SCRATCH/511021/C50568-P76/C50568-P76.minimised.mol

>  <scratch_subdir>  (1064) 
/opt/xchem-fragalysis-2/maxwin/BulkDock/SCRATCH/511021/C50568-P76

>  <fragmenstein_runtime>  (1064) 
8.46506381034851

>  <fragmenstein_outcome>  (1064) 
too moved

>  <fragmenstein_mode>  (1064) 
expansion

>  <fragmenstein_error>  (1064) 


$$$$
C50568-P68
     RDKit          3D

 32 34  0  0  0  0  0  0  0  0999 V2000
  -10.7738  -34.3792   24.3046 C   0  0  0  0  0  0  0  0  0  0  0  0
  -10.6825  -33.6708   22.9951 C   0  0  0  0  0  0  0  0  0  0  0  0
   -9.9920  -32.5079   22.7032 C   0  0  0  0  0  0  0  0  0  0  0  0
   -9.8491  -32.2540   21.2875 C   0  0  0  0  0  0  0  0  0  0  0  0
   -8.6338  -30.7987   20.2188 S   0  0  0  0  0  0  0  0  0  0  0  0
   -9.9647  -30.6800   19.6532 O   0  0  0  0  0  0  0  0  0  0  0  0
   -7.9052  -32.0033   20.1594 O   0  0  0  0  0  0  0  0  0  0  0  0
   -6.8031  -30.1432   19.2550 N   0  0  0  0  0  0  0  0  0  0  0  0
   -5.7346  -28.6907   19.0144 C   0  0  0  0  0  0  0  0  0  0  0  0
   -5.1876  -28.4412   17.7314 C   0  0  0  0  0  0  0  0  0  0  0  0
   -4.2892  -27.2973   17.3403 C   0  0  0  0  0  0  0  0  0  0  0  0
   -3.7790  -26.2669   18.1582 C   0  0  0  0  0  0  0  0  0  0  0  0
   -2.9663  -25.2404   17.6744 N   0  0  0  0  0  0  0  0  0  0  0  0
   -2.4979  -24.2812   18.5082 C   0  0  0  0  0  0  0  0  0  0  0  0
   -2.8023  -24.2933   19.8441 C   0  0  0  0  0  0  0  0  0  0  0  0
   -3.6289  -25.3484   20.3133 C   0  0  0  0  0  0  0  0  0  0  0  0
   -4.1807  -26.4112   19.4873 C   0  0  0  0  0  0  0  0  0  0  0  0
   -5.1344  -27.6420   19.8790 C   0  0  0  0  0  0  0  0  0  0  0  0
  -10.8714  -32.9861   20.6623 C   0  0  0  0  0  0  0  0  0  0  0  0
  -11.5080  -34.2462   21.6297 S   0  0  0  0  0  0  0  0  0  0  0  0
  -11.0848  -35.4224   24.1881 H   0  0  0  0  0  0  0  0  0  0  0  0
   -9.8009  -34.3799   24.8068 H   0  0  0  0  0  0  0  0  0  0  0  0
  -11.4970  -33.8758   24.9542 H   0  0  0  0  0  0  0  0  0  0  0  0
   -9.4955  -31.9892   23.5003 H   0  0  0  0  0  0  0  0  0  0  0  0
   -7.0912  -30.3371   18.2864 H   0  0  0  0  0  0  0  0  0  0  0  0
   -5.4574  -29.1247   16.9239 H   0  0  0  0  0  0  0  0  0  0  0  0
   -4.0002  -27.2674   16.2863 H   0  0  0  0  0  0  0  0  0  0  0  0
   -1.8733  -23.5192   18.0566 H   0  0  0  0  0  0  0  0  0  0  0  0
   -2.4277  -23.5332   20.5188 H   0  0  0  0  0  0  0  0  0  0  0  0
   -3.8758  -25.3662   21.3755 H   0  0  0  0  0  0  0  0  0  0  0  0
   -5.3930  -27.6471   20.9389 H   0  0  0  0  0  0  0  0  0  0  0  0
  -11.2414  -32.9163   19.6497 H   0  0  0  0  0  0  0  0  0  0  0  0
  1  2  1  0
  2  3  2  0
  3  4  1  0
  4  5  1  0
  5  6  2  0
  5  7  2  0
  5  8  1  0
  8  9  1  0
  9 10  2  0
 10 11  1  0
 11 12  2  0
 12 13  1  0
 13 14  2  0
 14 15  1  0
 15 16  2  0
 16 17  1  0
 17 18  2  0
  4 19  2  0
 19 20  1  0
 20  2  1  0
 18  9  1  0
 17 12  1  0
  1 21  1  0
  1 22  1  0
  1 23  1  0
  3 24  1  0
  8 25  1  0
 10 26  1  0
 11 27  1  0
 14 28  1  0
 15 29  1  0
 16 30  1  0
 18 31  1  0
 19 32  1  0
M  END
>  <Energy>  (1065) 
353.88178793201359

>  <compound_id>  (1065) 
50568

>  <target_id>  (1065) 
1

>  <reference_id>  (1065) 
68

>  <inspiration_ids>  (1065) 
[76, 68]

>  <energy_score>  (1065) 
321.47887710174797

>  <distance_score>  (1065) 
21.05652997962693

>  <path>  (1065) 
/opt/xchem-fragalysis-2/maxwin/BulkDock/SCRATCH/511021/C50568-P68/C50568-P68.minimised.mol

>  <scratch_subdir>  (1065) 
/opt/xchem-fragalysis-2/maxwin/BulkDock/SCRATCH/511021/C50568-P68

>  <fragmenstein_runtime>  (1065) 
13.377767324447632

>  <fragmenstein_outcome>  (1065) 
too moved

>  <fragmenstein_mode>  (1065) 
expansion

>  <fragmenstein_error>  (1065) 


$$$$
C50570-P76
     RDKit          3D

 40 42  0  0  0  0  0  0  0  0999 V2000
    9.5414  -17.0843   15.1623 C   0  0  0  0  0  0  0  0  0  0  0  0
    8.7891  -18.3115   15.6427 C   0  0  0  0  0  0  0  0  0  0  0  0
    9.1392  -19.1640   16.6683 C   0  0  0  0  0  0  0  0  0  0  0  0
    8.2197  -20.2634   16.8443 C   0  0  0  0  0  0  0  0  0  0  0  0
    7.1556  -20.2694   15.9567 C   0  0  0  0  0  0  0  0  0  0  0  0
    5.9066  -21.2437   15.7826 C   0  0  0  0  0  0  0  0  0  0  0  0
    5.6356  -22.4635   16.7750 C   0  0  0  0  0  0  0  0  0  0  0  0
    4.1377  -23.0375   16.7595 C   0  0  0  0  0  0  0  0  0  0  0  0
    3.7444  -24.3285   17.6557 C   0  0  0  0  0  0  0  0  0  0  0  0
    4.5968  -24.8935   18.2878 O   0  0  0  0  0  0  0  0  0  0  0  0
    2.2835  -24.5998   17.5391 N   0  0  0  0  0  0  0  0  0  0  0  0
    1.4691  -25.6680   18.0844 C   0  0  0  0  0  0  0  0  0  0  0  0
    0.0956  -25.6787   17.7733 C   0  0  0  0  0  0  0  0  0  0  0  0
   -0.7983  -26.6798   18.2474 C   0  0  0  0  0  0  0  0  0  0  0  0
   -0.3875  -27.7311   19.0526 C   0  0  0  0  0  0  0  0  0  0  0  0
   -1.2823  -28.6666   19.4612 N   0  0  0  0  0  0  0  0  0  0  0  0
   -0.8367  -29.6842   20.2274 C   0  0  0  0  0  0  0  0  0  0  0  0
    0.4815  -29.8086   20.6157 C   0  0  0  0  0  0  0  0  0  0  0  0
    1.3938  -28.8311   20.1953 C   0  0  0  0  0  0  0  0  0  0  0  0
    0.9817  -27.7537   19.3895 C   0  0  0  0  0  0  0  0  0  0  0  0
    1.8880  -26.7240   18.9082 C   0  0  0  0  0  0  0  0  0  0  0  0
    7.3164  -18.8521   14.9238 S   0  0  0  0  0  0  0  0  0  0  0  0
    9.2003  -16.1893   15.6844 H   0  0  0  0  0  0  0  0  0  0  0  0
    9.4262  -16.9505   14.0827 H   0  0  0  0  0  0  0  0  0  0  0  0
   10.6111  -17.2038   15.3657 H   0  0  0  0  0  0  0  0  0  0  0  0
   10.0275  -19.0303   17.2748 H   0  0  0  0  0  0  0  0  0  0  0  0
    8.3534  -21.0291   17.6005 H   0  0  0  0  0  0  0  0  0  0  0  0
    5.9791  -21.6604   14.7691 H   0  0  0  0  0  0  0  0  0  0  0  0
    5.0125  -20.6080   15.7917 H   0  0  0  0  0  0  0  0  0  0  0  0
    5.8790  -22.1870   17.8028 H   0  0  0  0  0  0  0  0  0  0  0  0
    6.3218  -23.2784   16.5144 H   0  0  0  0  0  0  0  0  0  0  0  0
    3.4704  -22.2248   17.0720 H   0  0  0  0  0  0  0  0  0  0  0  0
    3.8918  -23.2988   15.7230 H   0  0  0  0  0  0  0  0  0  0  0  0
    1.8534  -23.8719   16.9828 H   0  0  0  0  0  0  0  0  0  0  0  0
   -0.3181  -24.8999   17.1364 H   0  0  0  0  0  0  0  0  0  0  0  0
   -1.8469  -26.6270   17.9615 H   0  0  0  0  0  0  0  0  0  0  0  0
   -1.5877  -30.4089   20.5258 H   0  0  0  0  0  0  0  0  0  0  0  0
    0.8032  -30.6395   21.2333 H   0  0  0  0  0  0  0  0  0  0  0  0
    2.4362  -28.9161   20.4951 H   0  0  0  0  0  0  0  0  0  0  0  0
    2.9387  -26.7789   19.1930 H   0  0  0  0  0  0  0  0  0  0  0  0
  1  2  1  0
  2  3  2  0
  3  4  1  0
  4  5  2  0
  5  6  1  0
  6  7  1  0
  7  8  1  0
  8  9  1  0
  9 10  2  0
  9 11  1  0
 11 12  1  0
 12 13  2  0
 13 14  1  0
 14 15  2  0
 15 16  1  0
 16 17  2  0
 17 18  1  0
 18 19  2  0
 19 20  1  0
 20 21  2  0
  5 22  1  0
 22  2  1  0
 21 12  1  0
 20 15  1  0
  1 23  1  0
  1 24  1  0
  1 25  1  0
  3 26  1  0
  4 27  1  0
  6 28  1  0
  6 29  1  0
  7 30  1  0
  7 31  1  0
  8 32  1  0
  8 33  1  0
 11 34  1  0
 13 35  1  0
 14 36  1  0
 17 37  1  0
 18 38  1  0
 19 39  1  0
 21 40  1  0
M  END
>  <Energy>  (1066) 
47.604095635934129

>  <compound_id>  (1066) 
50570

>  <target_id>  (1066) 
1

>  <reference_id>  (1066) 
76

>  <inspiration_ids>  (1066) 
[76, 68]

>  <energy_score>  (1066) 
-19.20556805913054

>  <distance_score>  (1066) 
15.711965167921763

>  <path>  (1066) 
/opt/xchem-fragalysis-2/maxwin/BulkDock/SCRATCH/511021/C50570-P76/C50570-P76.minimised.mol

>  <scratch_subdir>  (1066) 
/opt/xchem-fragalysis-2/maxwin/BulkDock/SCRATCH/511021/C50570-P76

>  <fragmenstein_runtime>  (1066) 
12.310797691345215

>  <fragmenstein_outcome>  (1066) 
too moved

>  <fragmenstein_mode>  (1066) 
expansion

>  <fragmenstein_error>  (1066) 


$$$$
C50570-P68
     RDKit          3D

 40 42  0  0  0  0  0  0  0  0999 V2000
    8.6804  -17.4593   15.2846 C   0  0  0  0  0  0  0  0  0  0  0  0
    7.3700  -18.2135   15.3994 C   0  0  0  0  0  0  0  0  0  0  0  0
    6.0577  -17.7814   15.3401 C   0  0  0  0  0  0  0  0  0  0  0  0
    5.0853  -18.8276   15.4421 C   0  0  0  0  0  0  0  0  0  0  0  0
    5.6539  -20.0718   15.6167 C   0  0  0  0  0  0  0  0  0  0  0  0
    5.0074  -21.4746   15.7569 C   0  0  0  0  0  0  0  0  0  0  0  0
    3.5637  -21.6122   16.3538 C   0  0  0  0  0  0  0  0  0  0  0  0
    3.1823  -23.1040   16.6761 C   0  0  0  0  0  0  0  0  0  0  0  0
    1.7800  -23.4124   17.3376 C   0  0  0  0  0  0  0  0  0  0  0  0
    1.0100  -22.5233   17.5731 O   0  0  0  0  0  0  0  0  0  0  0  0
    1.6542  -24.8697   17.5344 N   0  0  0  0  0  0  0  0  0  0  0  0
    0.6257  -25.6438   18.1450 C   0  0  0  0  0  0  0  0  0  0  0  0
   -0.5087  -25.1139   18.7565 C   0  0  0  0  0  0  0  0  0  0  0  0
   -1.4830  -25.9555   19.3510 C   0  0  0  0  0  0  0  0  0  0  0  0
   -1.3766  -27.3407   19.3487 C   0  0  0  0  0  0  0  0  0  0  0  0
   -2.3334  -28.0983   19.9103 N   0  0  0  0  0  0  0  0  0  0  0  0
   -2.2021  -29.4357   19.8046 C   0  0  0  0  0  0  0  0  0  0  0  0
   -1.1325  -30.0782   19.2142 C   0  0  0  0  0  0  0  0  0  0  0  0
   -0.1294  -29.2879   18.6740 C   0  0  0  0  0  0  0  0  0  0  0  0
   -0.2432  -27.8925   18.7225 C   0  0  0  0  0  0  0  0  0  0  0  0
    0.7390  -27.0457   18.1440 C   0  0  0  0  0  0  0  0  0  0  0  0
    7.3900  -19.9194   15.6057 S   0  0  0  0  0  0  0  0  0  0  0  0
    8.9658  -17.3680   14.2320 H   0  0  0  0  0  0  0  0  0  0  0  0
    9.4827  -17.9973   15.8021 H   0  0  0  0  0  0  0  0  0  0  0  0
    8.6300  -16.4684   15.7317 H   0  0  0  0  0  0  0  0  0  0  0  0
    5.7324  -16.7689   15.2042 H   0  0  0  0  0  0  0  0  0  0  0  0
    4.0122  -18.6656   15.3878 H   0  0  0  0  0  0  0  0  0  0  0  0
    5.0051  -21.9283   14.7570 H   0  0  0  0  0  0  0  0  0  0  0  0
    5.6794  -22.0863   16.3734 H   0  0  0  0  0  0  0  0  0  0  0  0
    2.8369  -21.2019   15.6425 H   0  0  0  0  0  0  0  0  0  0  0  0
    3.4669  -21.0157   17.2640 H   0  0  0  0  0  0  0  0  0  0  0  0
    3.2275  -23.6747   15.7402 H   0  0  0  0  0  0  0  0  0  0  0  0
    3.9423  -23.5100   17.3554 H   0  0  0  0  0  0  0  0  0  0  0  0
    2.4683  -25.3285   17.1463 H   0  0  0  0  0  0  0  0  0  0  0  0
   -0.6557  -24.0372   18.7970 H   0  0  0  0  0  0  0  0  0  0  0  0
   -2.3522  -25.5012   19.8220 H   0  0  0  0  0  0  0  0  0  0  0  0
   -3.0300  -29.9923   20.2095 H   0  0  0  0  0  0  0  0  0  0  0  0
   -1.0941  -31.1583   19.1505 H   0  0  0  0  0  0  0  0  0  0  0  0
    0.7206  -29.7622   18.1920 H   0  0  0  0  0  0  0  0  0  0  0  0
    1.6046  -27.5036   17.6693 H   0  0  0  0  0  0  0  0  0  0  0  0
  1  2  1  0
  2  3  2  0
  3  4  1  0
  4  5  2  0
  5  6  1  0
  6  7  1  0
  7  8  1  0
  8  9  1  0
  9 10  2  0
  9 11  1  0
 11 12  1  0
 12 13  2  0
 13 14  1  0
 14 15  2  0
 15 16  1  0
 16 17  2  0
 17 18  1  0
 18 19  2  0
 19 20  1  0
 20 21  2  0
  5 22  1  0
 22  2  1  0
 21 12  1  0
 20 15  1  0
  1 23  1  0
  1 24  1  0
  1 25  1  0
  3 26  1  0
  4 27  1  0
  6 28  1  0
  6 29  1  0
  7 30  1  0
  7 31  1  0
  8 32  1  0
  8 33  1  0
 11 34  1  0
 13 35  1  0
 14 36  1  0
 17 37  1  0
 18 38  1  0
 19 39  1  0
 21 40  1  0
M  END
>  <Energy>  (1067) 
35.97587647369285

>  <compound_id>  (1067) 
50570

>  <target_id>  (1067) 
1

>  <reference_id>  (1067) 
68

>  <inspiration_ids>  (1067) 
[76, 68]

>  <energy_score>  (1067) 
-30.833787221368652

>  <distance_score>  (1067) 
15.485932580431443

>  <path>  (1067) 
/opt/xchem-fragalysis-2/maxwin/BulkDock/SCRATCH/511021/C50570-P68/C50570-P68.minimised.mol

>  <scratch_subdir>  (1067) 
/opt/xchem-fragalysis-2/maxwin/BulkDock/SCRATCH/511021/C50570-P68

>  <fragmenstein_runtime>  (1067) 
19.56136178970337

>  <fragmenstein_outcome>  (1067) 
too moved

>  <fragmenstein_mode>  (1067) 
expansion

>  <fragmenstein_error>  (1067) 


$$$$
C50571-P76
     RDKit          3D

 34 36  0  0  0  0  0  0  0  0999 V2000
    8.7634  -17.8598   15.0427 C   0  0  0  0  0  0  0  0  0  0  0  0
    7.5802  -18.8040   15.1496 C   0  0  0  0  0  0  0  0  0  0  0  0
    6.3447  -18.7555   14.5278 C   0  0  0  0  0  0  0  0  0  0  0  0
    5.4893  -19.8960   14.8428 C   0  0  0  0  0  0  0  0  0  0  0  0
    6.0708  -20.8166   15.7118 C   0  0  0  0  0  0  0  0  0  0  0  0
    5.6974  -22.5774   16.3093 S   0  0  0  0  0  0  0  0  0  0  0  0
    6.0130  -23.3318   15.1135 O   0  0  0  0  0  0  0  0  0  0  0  0
    6.5661  -22.6720   17.4712 O   0  0  0  0  0  0  0  0  0  0  0  0
    4.2257  -23.1942   16.9161 N   0  0  0  0  0  0  0  0  0  0  0  0
    3.4069  -24.3978   16.4902 C   0  0  0  0  0  0  0  0  0  0  0  0
    3.5586  -25.1572   15.5665 O   0  0  0  0  0  0  0  0  0  0  0  0
    2.1954  -24.8909   17.4083 C   0  0  0  0  0  0  0  0  0  0  0  0
    1.7748  -24.3977   18.6417 C   0  0  0  0  0  0  0  0  0  0  0  0
    0.7976  -25.0983   19.4422 C   0  0  0  0  0  0  0  0  0  0  0  0
    0.1951  -26.3166   19.0906 C   0  0  0  0  0  0  0  0  0  0  0  0
   -0.6847  -26.9612   19.9067 N   0  0  0  0  0  0  0  0  0  0  0  0
   -1.2093  -28.1425   19.4982 C   0  0  0  0  0  0  0  0  0  0  0  0
   -0.9026  -28.7263   18.2874 C   0  0  0  0  0  0  0  0  0  0  0  0
   -0.0001  -28.0569   17.4565 C   0  0  0  0  0  0  0  0  0  0  0  0
    0.5759  -26.8306   17.8476 C   0  0  0  0  0  0  0  0  0  0  0  0
    1.5410  -26.1203   17.0437 C   0  0  0  0  0  0  0  0  0  0  0  0
    7.6885  -20.2274   16.1136 S   0  0  0  0  0  0  0  0  0  0  0  0
    8.8603  -17.4895   14.0180 H   0  0  0  0  0  0  0  0  0  0  0  0
    9.6980  -18.3769   15.2864 H   0  0  0  0  0  0  0  0  0  0  0  0
    8.6568  -17.0228   15.7323 H   0  0  0  0  0  0  0  0  0  0  0  0
    6.0510  -17.9737   13.8357 H   0  0  0  0  0  0  0  0  0  0  0  0
    4.5117  -20.0479   14.3973 H   0  0  0  0  0  0  0  0  0  0  0  0
    3.8590  -22.8324   17.7916 H   0  0  0  0  0  0  0  0  0  0  0  0
    2.2001  -23.4874   19.0576 H   0  0  0  0  0  0  0  0  0  0  0  0
    0.5269  -24.6643   20.4057 H   0  0  0  0  0  0  0  0  0  0  0  0
   -1.9019  -28.6081   20.1928 H   0  0  0  0  0  0  0  0  0  0  0  0
   -1.3442  -29.6710   17.9930 H   0  0  0  0  0  0  0  0  0  0  0  0
    0.2645  -28.5008   16.4990 H   0  0  0  0  0  0  0  0  0  0  0  0
    1.8271  -26.5872   16.0974 H   0  0  0  0  0  0  0  0  0  0  0  0
  1  2  1  0
  2  3  2  0
  3  4  1  0
  4  5  2  0
  5  6  1  0
  6  7  2  0
  6  8  2  0
  6  9  1  0
  9 10  1  0
 10 11  2  0
 10 12  1  0
 12 13  2  0
 13 14  1  0
 14 15  2  0
 15 16  1  0
 16 17  2  0
 17 18  1  0
 18 19  2  0
 19 20  1  0
 20 21  2  0
  5 22  1  0
 22  2  1  0
 21 12  1  0
 20 15  1  0
  1 23  1  0
  1 24  1  0
  1 25  1  0
  3 26  1  0
  4 27  1  0
  9 28  1  0
 13 29  1  0
 14 30  1  0
 17 31  1  0
 18 32  1  0
 19 33  1  0
 21 34  1  0
M  END
>  <Energy>  (1068) 
10.964208378717231

>  <compound_id>  (1068) 
50571

>  <target_id>  (1068) 
1

>  <reference_id>  (1068) 
76

>  <inspiration_ids>  (1068) 
[76, 68]

>  <energy_score>  (1068) 
10.412254321773958

>  <distance_score>  (1068) 
16.855362559423078

>  <path>  (1068) 
/opt/xchem-fragalysis-2/maxwin/BulkDock/SCRATCH/511021/C50571-P76/C50571-P76.minimised.mol

>  <scratch_subdir>  (1068) 
/opt/xchem-fragalysis-2/maxwin/BulkDock/SCRATCH/511021/C50571-P76

>  <fragmenstein_runtime>  (1068) 
11.724781274795532

>  <fragmenstein_outcome>  (1068) 
too moved

>  <fragmenstein_mode>  (1068) 
expansion

>  <fragmenstein_error>  (1068) 


$$$$
C50571-P68
     RDKit          3D

 34 36  0  0  0  0  0  0  0  0999 V2000
   -3.1712  -15.5833   20.2276 C   0  0  0  0  0  0  0  0  0  0  0  0
   -3.3223  -16.9553   20.8547 C   0  0  0  0  0  0  0  0  0  0  0  0
   -2.8411  -17.3840   22.0728 C   0  0  0  0  0  0  0  0  0  0  0  0
   -3.0552  -18.7974   22.3226 C   0  0  0  0  0  0  0  0  0  0  0  0
   -3.8621  -19.4286   21.3709 C   0  0  0  0  0  0  0  0  0  0  0  0
   -5.0720  -20.9478   21.5547 S   0  0  0  0  0  0  0  0  0  0  0  0
   -6.0277  -20.6665   20.4954 O   0  0  0  0  0  0  0  0  0  0  0  0
   -5.4783  -20.7671   22.9357 O   0  0  0  0  0  0  0  0  0  0  0  0
   -4.8111  -22.6408   21.3518 N   0  0  0  0  0  0  0  0  0  0  0  0
   -4.9636  -23.8007   22.3409 C   0  0  0  0  0  0  0  0  0  0  0  0
   -5.2210  -23.7928   23.5199 O   0  0  0  0  0  0  0  0  0  0  0  0
   -4.9041  -25.3234   21.7986 C   0  0  0  0  0  0  0  0  0  0  0  0
   -4.4775  -25.7488   20.5377 C   0  0  0  0  0  0  0  0  0  0  0  0
   -4.7833  -27.0576   19.9900 C   0  0  0  0  0  0  0  0  0  0  0  0
   -5.6446  -28.0059   20.5503 C   0  0  0  0  0  0  0  0  0  0  0  0
   -6.2766  -29.2278   19.6309 N   0  0  0  0  0  0  0  0  0  0  0  0
   -7.7360  -29.8507   20.0512 C   0  0  0  0  0  0  0  0  0  0  0  0
   -8.4294  -29.2837   21.6909 C   0  0  0  0  0  0  0  0  0  0  0  0
   -7.2978  -28.3990   22.8132 C   0  0  0  0  0  0  0  0  0  0  0  0
   -6.0734  -27.6048   22.0671 C   0  0  0  0  0  0  0  0  0  0  0  0
   -5.5886  -26.3404   22.5805 C   0  0  0  0  0  0  0  0  0  0  0  0
   -4.2110  -18.2478   20.1035 S   0  0  0  0  0  0  0  0  0  0  0  0
   -2.7688  -14.8726   20.9549 H   0  0  0  0  0  0  0  0  0  0  0  0
   -4.1516  -15.2110   19.9117 H   0  0  0  0  0  0  0  0  0  0  0  0
   -2.5228  -15.6159   19.3544 H   0  0  0  0  0  0  0  0  0  0  0  0
   -2.3504  -16.7176   22.7654 H   0  0  0  0  0  0  0  0  0  0  0  0
   -2.7866  -19.2826   23.2548 H   0  0  0  0  0  0  0  0  0  0  0  0
   -4.6743  -23.0121   20.4180 H   0  0  0  0  0  0  0  0  0  0  0  0
   -3.9190  -25.0696   19.8956 H   0  0  0  0  0  0  0  0  0  0  0  0
   -4.4416  -27.2660   18.9726 H   0  0  0  0  0  0  0  0  0  0  0  0
   -8.0122  -30.7597   19.5607 H   0  0  0  0  0  0  0  0  0  0  0  0
   -9.3792  -29.7634   21.9124 H   0  0  0  0  0  0  0  0  0  0  0  0
   -7.6578  -28.0880   23.7902 H   0  0  0  0  0  0  0  0  0  0  0  0
   -5.9646  -26.0441   23.5642 H   0  0  0  0  0  0  0  0  0  0  0  0
  1  2  1  0
  2  3  2  0
  3  4  1  0
  4  5  2  0
  5  6  1  0
  6  7  2  0
  6  8  2  0
  6  9  1  0
  9 10  1  0
 10 11  2  0
 10 12  1  0
 12 13  2  0
 13 14  1  0
 14 15  2  0
 15 16  1  0
 16 17  2  0
 17 18  1  0
 18 19  2  0
 19 20  1  0
 20 21  2  0
  5 22  1  0
 22  2  1  0
 21 12  1  0
 20 15  1  0
  1 23  1  0
  1 24  1  0
  1 25  1  0
  3 26  1  0
  4 27  1  0
  9 28  1  0
 13 29  1  0
 14 30  1  0
 17 31  1  0
 18 32  1  0
 19 33  1  0
 21 34  1  0
M  END
>  <Energy>  (1069) 
239.02791479603022

>  <compound_id>  (1069) 
50571

>  <target_id>  (1069) 
1

>  <reference_id>  (1069) 
68

>  <inspiration_ids>  (1069) 
[76, 68]

>  <energy_score>  (1069) 
238.47596073909068

>  <distance_score>  (1069) 
17.194504603866815

>  <path>  (1069) 
/opt/xchem-fragalysis-2/maxwin/BulkDock/SCRATCH/511021/C50571-P68/C50571-P68.minimised.mol

>  <scratch_subdir>  (1069) 
/opt/xchem-fragalysis-2/maxwin/BulkDock/SCRATCH/511021/C50571-P68

>  <fragmenstein_runtime>  (1069) 
18.54578447341919

>  <fragmenstein_outcome>  (1069) 
too moved

>  <fragmenstein_mode>  (1069) 
expansion

>  <fragmenstein_error>  (1069) 


$$$$
C50572-P76
     RDKit          3D

 37 39  0  0  0  0  0  0  0  0999 V2000
    6.6506  -11.0613   21.1171 C   0  0  0  0  0  0  0  0  0  0  0  0
    5.5157  -11.9789   21.5107 C   0  0  0  0  0  0  0  0  0  0  0  0
    4.7128  -12.7992   20.7270 C   0  0  0  0  0  0  0  0  0  0  0  0
    3.4525  -13.4864   21.4251 C   0  0  0  0  0  0  0  0  0  0  0  0
    2.0967  -14.7610   20.5778 C   0  0  0  0  0  0  0  0  0  0  0  0
    0.4814  -16.1590   20.5980 C   0  0  0  0  0  0  0  0  0  0  0  0
    0.5800  -16.9897   19.7839 O   0  0  0  0  0  0  0  0  0  0  0  0
   -0.6832  -16.1263   21.7213 N   0  0  0  0  0  0  0  0  0  0  0  0
   -1.9238  -17.0282   21.9362 C   0  0  0  0  0  0  0  0  0  0  0  0
   -2.1375  -18.6223   21.8351 C   0  0  0  0  0  0  0  0  0  0  0  0
   -3.2998  -19.1046   21.1765 C   0  0  0  0  0  0  0  0  0  0  0  0
   -3.7329  -20.4704   21.2044 C   0  0  0  0  0  0  0  0  0  0  0  0
   -3.0527  -21.4708   21.8825 C   0  0  0  0  0  0  0  0  0  0  0  0
   -3.5113  -22.7553   21.8659 N   0  0  0  0  0  0  0  0  0  0  0  0
   -2.8091  -23.6969   22.5296 C   0  0  0  0  0  0  0  0  0  0  0  0
   -1.6536  -23.4076   23.2242 C   0  0  0  0  0  0  0  0  0  0  0  0
   -1.1983  -22.0770   23.2403 C   0  0  0  0  0  0  0  0  0  0  0  0
   -1.8902  -21.0531   22.5612 C   0  0  0  0  0  0  0  0  0  0  0  0
   -1.4623  -19.6448   22.5424 C   0  0  0  0  0  0  0  0  0  0  0  0
    3.7999  -13.2898   22.7969 C   0  0  0  0  0  0  0  0  0  0  0  0
    4.9982  -12.0841   23.1290 S   0  0  0  0  0  0  0  0  0  0  0  0
    6.5474  -10.7400   20.0780 H   0  0  0  0  0  0  0  0  0  0  0  0
    6.6630  -10.1611   21.7404 H   0  0  0  0  0  0  0  0  0  0  0  0
    7.6072  -11.5792   21.2350 H   0  0  0  0  0  0  0  0  0  0  0  0
    4.8458  -12.9286   19.6636 H   0  0  0  0  0  0  0  0  0  0  0  0
    2.5164  -14.7884   19.5507 H   0  0  0  0  0  0  0  0  0  0  0  0
    2.5277  -14.9250   21.5195 H   0  0  0  0  0  0  0  0  0  0  0  0
   -0.4983  -15.3530   22.3598 H   0  0  0  0  0  0  0  0  0  0  0  0
   -2.6383  -16.5932   21.2264 H   0  0  0  0  0  0  0  0  0  0  0  0
   -2.2797  -16.7583   22.9383 H   0  0  0  0  0  0  0  0  0  0  0  0
   -3.9293  -18.4011   20.6293 H   0  0  0  0  0  0  0  0  0  0  0  0
   -4.6416  -20.7366   20.6671 H   0  0  0  0  0  0  0  0  0  0  0  0
   -3.2102  -24.7040   22.4827 H   0  0  0  0  0  0  0  0  0  0  0  0
   -1.1087  -24.1861   23.7464 H   0  0  0  0  0  0  0  0  0  0  0  0
   -0.2865  -21.8417   23.7857 H   0  0  0  0  0  0  0  0  0  0  0  0
   -0.5806  -19.3775   23.1229 H   0  0  0  0  0  0  0  0  0  0  0  0
    3.3246  -13.7681   23.6418 H   0  0  0  0  0  0  0  0  0  0  0  0
  1  2  1  0
  2  3  2  0
  3  4  1  0
  4  5  1  0
  5  6  1  0
  6  7  2  0
  6  8  1  0
  8  9  1  0
  9 10  1  0
 10 11  2  0
 11 12  1  0
 12 13  2  0
 13 14  1  0
 14 15  2  0
 15 16  1  0
 16 17  2  0
 17 18  1  0
 18 19  2  0
  4 20  2  0
 20 21  1  0
 21  2  1  0
 19 10  1  0
 18 13  1  0
  1 22  1  0
  1 23  1  0
  1 24  1  0
  3 25  1  0
  5 26  1  0
  5 27  1  0
  8 28  1  0
  9 29  1  0
  9 30  1  0
 11 31  1  0
 12 32  1  0
 15 33  1  0
 16 34  1  0
 17 35  1  0
 19 36  1  0
 20 37  1  0
M  END
>  <Energy>  (1070) 
369.84971493859632

>  <compound_id>  (1070) 
50572

>  <target_id>  (1070) 
1

>  <reference_id>  (1070) 
76

>  <inspiration_ids>  (1070) 
[76, 68]

>  <energy_score>  (1070) 
295.43175775370827

>  <distance_score>  (1070) 
16.312310662556378

>  <path>  (1070) 
/opt/xchem-fragalysis-2/maxwin/BulkDock/SCRATCH/511021/C50572-P76/C50572-P76.minimised.mol

>  <scratch_subdir>  (1070) 
/opt/xchem-fragalysis-2/maxwin/BulkDock/SCRATCH/511021/C50572-P76

>  <fragmenstein_runtime>  (1070) 
10.840710163116455

>  <fragmenstein_outcome>  (1070) 
too moved

>  <fragmenstein_mode>  (1070) 
expansion

>  <fragmenstein_error>  (1070) 


$$$$
C50572-P68
     RDKit          3D

 37 39  0  0  0  0  0  0  0  0999 V2000
    7.6170  -18.0477   15.2479 C   0  0  0  0  0  0  0  0  0  0  0  0
    6.2323  -18.6046   15.4616 C   0  0  0  0  0  0  0  0  0  0  0  0
    5.7899  -19.9182   15.5995 C   0  0  0  0  0  0  0  0  0  0  0  0
    4.3482  -20.0657   15.8822 C   0  0  0  0  0  0  0  0  0  0  0  0
    3.5609  -21.4287   16.1354 C   0  0  0  0  0  0  0  0  0  0  0  0
    2.4008  -21.4889   17.2437 C   0  0  0  0  0  0  0  0  0  0  0  0
    2.0307  -20.4498   17.7216 O   0  0  0  0  0  0  0  0  0  0  0  0
    1.9977  -22.8953   17.5494 N   0  0  0  0  0  0  0  0  0  0  0  0
    1.0972  -23.4393   18.5973 C   0  0  0  0  0  0  0  0  0  0  0  0
    0.3712  -24.8089   18.5777 C   0  0  0  0  0  0  0  0  0  0  0  0
    0.0371  -25.5487   17.4454 C   0  0  0  0  0  0  0  0  0  0  0  0
   -0.6994  -26.7630   17.5487 C   0  0  0  0  0  0  0  0  0  0  0  0
   -1.1496  -27.2881   18.7590 C   0  0  0  0  0  0  0  0  0  0  0  0
   -1.8315  -28.4514   18.7955 N   0  0  0  0  0  0  0  0  0  0  0  0
   -2.2637  -28.9019   19.9907 C   0  0  0  0  0  0  0  0  0  0  0  0
   -2.0343  -28.2401   21.1810 C   0  0  0  0  0  0  0  0  0  0  0  0
   -1.3195  -27.0464   21.1393 C   0  0  0  0  0  0  0  0  0  0  0  0
   -0.8590  -26.5456   19.9135 C   0  0  0  0  0  0  0  0  0  0  0  0
   -0.1189  -25.3315   19.8097 C   0  0  0  0  0  0  0  0  0  0  0  0
    3.7825  -18.8063   15.8019 C   0  0  0  0  0  0  0  0  0  0  0  0
    4.9054  -17.5507   15.5526 S   0  0  0  0  0  0  0  0  0  0  0  0
    7.8700  -18.0834   14.1844 H   0  0  0  0  0  0  0  0  0  0  0  0
    8.3455  -18.6646   15.7853 H   0  0  0  0  0  0  0  0  0  0  0  0
    7.7226  -17.0264   15.6125 H   0  0  0  0  0  0  0  0  0  0  0  0
    6.4611  -20.7664   15.5439 H   0  0  0  0  0  0  0  0  0  0  0  0
    3.1049  -21.7160   15.1804 H   0  0  0  0  0  0  0  0  0  0  0  0
    4.3095  -22.1834   16.4052 H   0  0  0  0  0  0  0  0  0  0  0  0
    2.5729  -23.5299   17.0124 H   0  0  0  0  0  0  0  0  0  0  0  0
    0.3323  -22.6775   18.7612 H   0  0  0  0  0  0  0  0  0  0  0  0
    1.7275  -23.4330   19.4960 H   0  0  0  0  0  0  0  0  0  0  0  0
    0.3338  -25.2004   16.4583 H   0  0  0  0  0  0  0  0  0  0  0  0
   -0.9297  -27.3131   16.6373 H   0  0  0  0  0  0  0  0  0  0  0  0
   -2.8222  -29.8279   19.9508 H   0  0  0  0  0  0  0  0  0  0  0  0
   -2.4020  -28.6234   22.1233 H   0  0  0  0  0  0  0  0  0  0  0  0
   -1.1271  -26.5074   22.0631 H   0  0  0  0  0  0  0  0  0  0  0  0
    0.0828  -24.7703   20.7236 H   0  0  0  0  0  0  0  0  0  0  0  0
    2.7343  -18.5664   15.8947 H   0  0  0  0  0  0  0  0  0  0  0  0
  1  2  1  0
  2  3  2  0
  3  4  1  0
  4  5  1  0
  5  6  1  0
  6  7  2  0
  6  8  1  0
  8  9  1  0
  9 10  1  0
 10 11  2  0
 11 12  1  0
 12 13  2  0
 13 14  1  0
 14 15  2  0
 15 16  1  0
 16 17  2  0
 17 18  1  0
 18 19  2  0
  4 20  2  0
 20 21  1  0
 21  2  1  0
 19 10  1  0
 18 13  1  0
  1 22  1  0
  1 23  1  0
  1 24  1  0
  3 25  1  0
  5 26  1  0
  5 27  1  0
  8 28  1  0
  9 29  1  0
  9 30  1  0
 11 31  1  0
 12 32  1  0
 15 33  1  0
 16 34  1  0
 17 35  1  0
 19 36  1  0
 20 37  1  0
M  END
>  <Energy>  (1071) 
68.220633510374341

>  <compound_id>  (1071) 
50572

>  <target_id>  (1071) 
1

>  <reference_id>  (1071) 
68

>  <inspiration_ids>  (1071) 
[76, 68]

>  <energy_score>  (1071) 
-6.1973236745089935

>  <distance_score>  (1071) 
16.155831836592483

>  <path>  (1071) 
/opt/xchem-fragalysis-2/maxwin/BulkDock/SCRATCH/511021/C50572-P68/C50572-P68.minimised.mol

>  <scratch_subdir>  (1071) 
/opt/xchem-fragalysis-2/maxwin/BulkDock/SCRATCH/511021/C50572-P68

>  <fragmenstein_runtime>  (1071) 
18.91937565803528

>  <fragmenstein_outcome>  (1071) 
too moved

>  <fragmenstein_mode>  (1071) 
expansion

>  <fragmenstein_error>  (1071) 


$$$$
C50575-P76
     RDKit          3D

 37 39  0  0  0  0  0  0  0  0999 V2000
    5.1195  -12.8832   19.7638 C   0  0  0  0  0  0  0  0  0  0  0  0
    4.2847  -13.8375   18.9281 C   0  0  0  0  0  0  0  0  0  0  0  0
    3.1249  -13.7468   18.3846 C   0  0  0  0  0  0  0  0  0  0  0  0
    2.2167  -14.8131   18.1309 C   0  0  0  0  0  0  0  0  0  0  0  0
    2.5495  -16.3062   18.1382 C   0  0  0  0  0  0  0  0  0  0  0  0
    1.9364  -18.3098   18.6250 C   0  0  0  0  0  0  0  0  0  0  0  0
    2.5956  -19.5090   20.4224 C   0  0  0  0  0  0  0  0  0  0  0  0
    2.2724  -21.4765   20.7326 C   0  0  0  0  0  0  0  0  0  0  0  0
    1.8943  -21.6586   21.8781 O   0  0  0  0  0  0  0  0  0  0  0  0
    2.4024  -22.4255   19.6144 N   0  0  0  0  0  0  0  0  0  0  0  0
    2.0288  -23.8273   19.5081 C   0  0  0  0  0  0  0  0  0  0  0  0
    1.9778  -24.5628   18.3327 C   0  0  0  0  0  0  0  0  0  0  0  0
    1.3131  -25.8389   18.2799 C   0  0  0  0  0  0  0  0  0  0  0  0
    0.6609  -26.4452   19.3642 C   0  0  0  0  0  0  0  0  0  0  0  0
    0.0230  -27.6442   19.2456 N   0  0  0  0  0  0  0  0  0  0  0  0
   -0.6034  -28.1594   20.3292 C   0  0  0  0  0  0  0  0  0  0  0  0
   -0.6236  -27.5314   21.5560 C   0  0  0  0  0  0  0  0  0  0  0  0
    0.0412  -26.3060   21.6715 C   0  0  0  0  0  0  0  0  0  0  0  0
    0.7017  -25.7305   20.5665 C   0  0  0  0  0  0  0  0  0  0  0  0
    1.3807  -24.4585   20.6176 C   0  0  0  0  0  0  0  0  0  0  0  0
    4.3954  -15.3172   18.2290 S   0  0  0  0  0  0  0  0  0  0  0  0
    4.5224  -12.5558   20.6112 H   0  0  0  0  0  0  0  0  0  0  0  0
    5.5498  -12.0179   19.2818 H   0  0  0  0  0  0  0  0  0  0  0  0
    5.9382  -13.3485   20.2454 H   0  0  0  0  0  0  0  0  0  0  0  0
    3.1356  -12.6786   18.1503 H   0  0  0  0  0  0  0  0  0  0  0  0
    1.3101  -14.3824   17.7299 H   0  0  0  0  0  0  0  0  0  0  0  0
    2.1344  -18.8630   17.6766 H   0  0  0  0  0  0  0  0  0  0  0  0
    0.8555  -18.1016   18.7276 H   0  0  0  0  0  0  0  0  0  0  0  0
    3.3108  -19.1433   21.1177 H   0  0  0  0  0  0  0  0  0  0  0  0
    1.8234  -19.3288   21.2148 H   0  0  0  0  0  0  0  0  0  0  0  0
    2.8253  -21.9499   18.8286 H   0  0  0  0  0  0  0  0  0  0  0  0
    2.3928  -24.1558   17.4145 H   0  0  0  0  0  0  0  0  0  0  0  0
    1.2909  -26.3615   17.3241 H   0  0  0  0  0  0  0  0  0  0  0  0
   -1.0985  -29.1123   20.1710 H   0  0  0  0  0  0  0  0  0  0  0  0
   -1.1360  -27.9723   22.4026 H   0  0  0  0  0  0  0  0  0  0  0  0
    0.0399  -25.7884   22.6284 H   0  0  0  0  0  0  0  0  0  0  0  0
    1.3576  -23.9285   21.5697 H   0  0  0  0  0  0  0  0  0  0  0  0
  1  2  1  0
  2  3  2  0
  3  4  1  0
  4  5  2  0
  5  6  1  0
  6  7  1  0
  7  8  1  0
  8  9  2  0
  8 10  1  0
 10 11  1  0
 11 12  2  0
 12 13  1  0
 13 14  2  0
 14 15  1  0
 15 16  2  0
 16 17  1  0
 17 18  2  0
 18 19  1  0
 19 20  2  0
  5 21  1  0
 21  2  1  0
 20 11  1  0
 19 14  1  0
  1 22  1  0
  1 23  1  0
  1 24  1  0
  3 25  1  0
  4 26  1  0
  6 27  1  0
  6 28  1  0
  7 29  1  0
  7 30  1  0
 10 31  1  0
 12 32  1  0
 13 33  1  0
 16 34  1  0
 17 35  1  0
 18 36  1  0
 20 37  1  0
M  END
>  <Energy>  (1072) 
552.29465442733147

>  <compound_id>  (1072) 
50575

>  <target_id>  (1072) 
1

>  <reference_id>  (1072) 
76

>  <inspiration_ids>  (1072) 
[76, 68]

>  <energy_score>  (1072) 
504.7067466653094

>  <distance_score>  (1072) 
15.590226681915146

>  <path>  (1072) 
/opt/xchem-fragalysis-2/maxwin/BulkDock/SCRATCH/511021/C50575-P76/C50575-P76.minimised.mol

>  <scratch_subdir>  (1072) 
/opt/xchem-fragalysis-2/maxwin/BulkDock/SCRATCH/511021/C50575-P76

>  <fragmenstein_runtime>  (1072) 
12.600167989730835

>  <fragmenstein_outcome>  (1072) 
too moved

>  <fragmenstein_mode>  (1072) 
expansion

>  <fragmenstein_error>  (1072) 


$$$$
C50575-P68
     RDKit          3D

 37 39  0  0  0  0  0  0  0  0999 V2000
    7.1019  -16.9178   14.6904 C   0  0  0  0  0  0  0  0  0  0  0  0
    5.9977  -17.8271   15.1868 C   0  0  0  0  0  0  0  0  0  0  0  0
    4.7822  -17.5075   15.7561 C   0  0  0  0  0  0  0  0  0  0  0  0
    3.9359  -18.6453   16.0017 C   0  0  0  0  0  0  0  0  0  0  0  0
    4.5449  -19.8601   15.7521 C   0  0  0  0  0  0  0  0  0  0  0  0
    4.0639  -21.3482   15.9723 C   0  0  0  0  0  0  0  0  0  0  0  0
    2.7000  -21.6894   16.7100 C   0  0  0  0  0  0  0  0  0  0  0  0
    2.5146  -23.2515   17.0804 C   0  0  0  0  0  0  0  0  0  0  0  0
    3.4783  -23.9629   16.9533 O   0  0  0  0  0  0  0  0  0  0  0  0
    1.1432  -23.5572   17.5748 N   0  0  0  0  0  0  0  0  0  0  0  0
    0.5446  -24.8064   18.0015 C   0  0  0  0  0  0  0  0  0  0  0  0
    1.2495  -26.0074   18.0729 C   0  0  0  0  0  0  0  0  0  0  0  0
    0.6397  -27.2218   18.5048 C   0  0  0  0  0  0  0  0  0  0  0  0
   -0.6987  -27.3220   18.8640 C   0  0  0  0  0  0  0  0  0  0  0  0
   -1.2176  -28.5186   19.2343 N   0  0  0  0  0  0  0  0  0  0  0  0
   -2.5406  -28.5871   19.4930 C   0  0  0  0  0  0  0  0  0  0  0  0
   -3.3754  -27.4887   19.4458 C   0  0  0  0  0  0  0  0  0  0  0  0
   -2.8187  -26.2496   19.1048 C   0  0  0  0  0  0  0  0  0  0  0  0
   -1.4504  -26.1344   18.7902 C   0  0  0  0  0  0  0  0  0  0  0  0
   -0.8183  -24.8956   18.3815 C   0  0  0  0  0  0  0  0  0  0  0  0
    6.1443  -19.5429   15.1002 S   0  0  0  0  0  0  0  0  0  0  0  0
    6.6790  -16.0988   14.1043 H   0  0  0  0  0  0  0  0  0  0  0  0
    7.7890  -17.4617   14.0331 H   0  0  0  0  0  0  0  0  0  0  0  0
    7.6861  -16.5130   15.5164 H   0  0  0  0  0  0  0  0  0  0  0  0
    4.4549  -16.5094   16.0018 H   0  0  0  0  0  0  0  0  0  0  0  0
    2.9402  -18.5645   16.4172 H   0  0  0  0  0  0  0  0  0  0  0  0
    4.8733  -21.8554   16.5128 H   0  0  0  0  0  0  0  0  0  0  0  0
    4.0221  -21.8146   14.9787 H   0  0  0  0  0  0  0  0  0  0  0  0
    2.6391  -21.1283   17.6477 H   0  0  0  0  0  0  0  0  0  0  0  0
    1.8622  -21.3872   16.0722 H   0  0  0  0  0  0  0  0  0  0  0  0
    0.6084  -22.6982   17.6248 H   0  0  0  0  0  0  0  0  0  0  0  0
    2.3038  -26.0357   17.8027 H   0  0  0  0  0  0  0  0  0  0  0  0
    1.2515  -28.1217   18.5401 H   0  0  0  0  0  0  0  0  0  0  0  0
   -2.9187  -29.5749   19.7313 H   0  0  0  0  0  0  0  0  0  0  0  0
   -4.4352  -27.5910   19.6506 H   0  0  0  0  0  0  0  0  0  0  0  0
   -3.4651  -25.3767   19.0559 H   0  0  0  0  0  0  0  0  0  0  0  0
   -1.4319  -23.9971   18.3404 H   0  0  0  0  0  0  0  0  0  0  0  0
  1  2  1  0
  2  3  2  0
  3  4  1  0
  4  5  2  0
  5  6  1  0
  6  7  1  0
  7  8  1  0
  8  9  2  0
  8 10  1  0
 10 11  1  0
 11 12  2  0
 12 13  1  0
 13 14  2  0
 14 15  1  0
 15 16  2  0
 16 17  1  0
 17 18  2  0
 18 19  1  0
 19 20  2  0
  5 21  1  0
 21  2  1  0
 20 11  1  0
 19 14  1  0
  1 22  1  0
  1 23  1  0
  1 24  1  0
  3 25  1  0
  4 26  1  0
  6 27  1  0
  6 28  1  0
  7 29  1  0
  7 30  1  0
 10 31  1  0
 12 32  1  0
 13 33  1  0
 16 34  1  0
 17 35  1  0
 18 36  1  0
 20 37  1  0
M  END
>  <Energy>  (1073) 
40.319775356190029

>  <compound_id>  (1073) 
50575

>  <target_id>  (1073) 
1

>  <reference_id>  (1073) 
68

>  <inspiration_ids>  (1073) 
[76, 68]

>  <energy_score>  (1073) 
-7.268132405830784

>  <distance_score>  (1073) 
15.861205719975391

>  <path>  (1073) 
/opt/xchem-fragalysis-2/maxwin/BulkDock/SCRATCH/511021/C50575-P68/C50575-P68.minimised.mol

>  <scratch_subdir>  (1073) 
/opt/xchem-fragalysis-2/maxwin/BulkDock/SCRATCH/511021/C50575-P68

>  <fragmenstein_runtime>  (1073) 
30.916131734848022

>  <fragmenstein_outcome>  (1073) 
too moved

>  <fragmenstein_mode>  (1073) 
expansion

>  <fragmenstein_error>  (1073) 


$$$$
C50576-P76
     RDKit          3D

 43 45  0  0  0  0  0  0  0  0999 V2000
    9.2487  -16.8736   20.4981 C   0  0  0  0  0  0  0  0  0  0  0  0
    8.5888  -18.2412   20.5068 C   0  0  0  0  0  0  0  0  0  0  0  0
    7.5457  -18.7871   21.2679 C   0  0  0  0  0  0  0  0  0  0  0  0
    7.2502  -20.2279   21.0201 C   0  0  0  0  0  0  0  0  0  0  0  0
    6.1277  -21.2544   21.7896 C   0  0  0  0  0  0  0  0  0  0  0  0
    6.9353  -22.0822   22.8114 C   0  0  0  0  0  0  0  0  0  0  0  0
    5.0882  -20.4187   22.5525 C   0  0  0  0  0  0  0  0  0  0  0  0
    5.3512  -22.3815   20.7970 C   0  0  0  0  0  0  0  0  0  0  0  0
    5.8380  -22.4847   19.6985 O   0  0  0  0  0  0  0  0  0  0  0  0
    4.1962  -23.1153   21.4251 N   0  0  0  0  0  0  0  0  0  0  0  0
    3.2374  -24.1249   20.8427 C   0  0  0  0  0  0  0  0  0  0  0  0
    2.2575  -25.1088   21.5809 C   0  0  0  0  0  0  0  0  0  0  0  0
    1.5778  -24.8733   22.7741 C   0  0  0  0  0  0  0  0  0  0  0  0
    0.5936  -25.7916   23.2744 C   0  0  0  0  0  0  0  0  0  0  0  0
    0.2097  -26.9711   22.6250 C   0  0  0  0  0  0  0  0  0  0  0  0
   -0.7336  -27.8049   23.1427 N   0  0  0  0  0  0  0  0  0  0  0  0
   -1.0683  -28.9175   22.4463 C   0  0  0  0  0  0  0  0  0  0  0  0
   -0.4998  -29.2512   21.2347 C   0  0  0  0  0  0  0  0  0  0  0  0
    0.4731  -28.3928   20.7155 C   0  0  0  0  0  0  0  0  0  0  0  0
    0.8529  -27.2249   21.4070 C   0  0  0  0  0  0  0  0  0  0  0  0
    1.8452  -26.3045   20.9118 C   0  0  0  0  0  0  0  0  0  0  0  0
    8.1689  -20.6465   20.0641 C   0  0  0  0  0  0  0  0  0  0  0  0
    9.1963  -19.4242   19.4359 S   0  0  0  0  0  0  0  0  0  0  0  0
   10.1537  -16.8597   19.8815 H   0  0  0  0  0  0  0  0  0  0  0  0
    9.5445  -16.6030   21.5165 H   0  0  0  0  0  0  0  0  0  0  0  0
    8.5712  -16.1196   20.1075 H   0  0  0  0  0  0  0  0  0  0  0  0
    7.0142  -18.2120   22.0099 H   0  0  0  0  0  0  0  0  0  0  0  0
    7.6767  -22.7108   22.3051 H   0  0  0  0  0  0  0  0  0  0  0  0
    7.4710  -21.4337   23.5137 H   0  0  0  0  0  0  0  0  0  0  0  0
    6.2875  -22.7491   23.3908 H   0  0  0  0  0  0  0  0  0  0  0  0
    4.3240  -20.0276   21.8809 H   0  0  0  0  0  0  0  0  0  0  0  0
    4.5620  -21.0142   23.3065 H   0  0  0  0  0  0  0  0  0  0  0  0
    5.5421  -19.5801   23.0884 H   0  0  0  0  0  0  0  0  0  0  0  0
    4.0052  -22.7183   22.3328 H   0  0  0  0  0  0  0  0  0  0  0  0
    2.6032  -23.5304   20.1725 H   0  0  0  0  0  0  0  0  0  0  0  0
    3.8721  -24.7376   20.1898 H   0  0  0  0  0  0  0  0  0  0  0  0
    1.7766  -23.9679   23.3436 H   0  0  0  0  0  0  0  0  0  0  0  0
    0.1028  -25.5534   24.2176 H   0  0  0  0  0  0  0  0  0  0  0  0
   -1.8288  -29.5418   22.9055 H   0  0  0  0  0  0  0  0  0  0  0  0
   -0.7973  -30.1489   20.7055 H   0  0  0  0  0  0  0  0  0  0  0  0
    0.9365  -28.6360   19.7620 H   0  0  0  0  0  0  0  0  0  0  0  0
    2.3032  -26.5304   19.9463 H   0  0  0  0  0  0  0  0  0  0  0  0
    8.2665  -21.6462   19.6614 H   0  0  0  0  0  0  0  0  0  0  0  0
  1  2  1  0
  2  3  2  0
  3  4  1  0
  4  5  1  0
  5  6  1  0
  5  7  1  0
  5  8  1  0
  8  9  2  0
  8 10  1  0
 10 11  1  0
 11 12  1  0
 12 13  2  0
 13 14  1  0
 14 15  2  0
 15 16  1  0
 16 17  2  0
 17 18  1  0
 18 19  2  0
 19 20  1  0
 20 21  2  0
  4 22  2  0
 22 23  1  0
 23  2  1  0
 21 12  1  0
 20 15  1  0
  1 24  1  0
  1 25  1  0
  1 26  1  0
  3 27  1  0
  6 28  1  0
  6 29  1  0
  6 30  1  0
  7 31  1  0
  7 32  1  0
  7 33  1  0
 10 34  1  0
 11 35  1  0
 11 36  1  0
 13 37  1  0
 14 38  1  0
 17 39  1  0
 18 40  1  0
 19 41  1  0
 21 42  1  0
 22 43  1  0
M  END
>  <Energy>  (1074) 
99.549617354831881

>  <compound_id>  (1074) 
50576

>  <target_id>  (1074) 
1

>  <reference_id>  (1074) 
76

>  <inspiration_ids>  (1074) 
[76, 68]

>  <energy_score>  (1074) 
2.190367836363066

>  <distance_score>  (1074) 
16.287985653146613

>  <path>  (1074) 
/opt/xchem-fragalysis-2/maxwin/BulkDock/SCRATCH/511021/C50576-P76/C50576-P76.minimised.mol

>  <scratch_subdir>  (1074) 
/opt/xchem-fragalysis-2/maxwin/BulkDock/SCRATCH/511021/C50576-P76

>  <fragmenstein_runtime>  (1074) 
27.599655866622925

>  <fragmenstein_outcome>  (1074) 
too moved

>  <fragmenstein_mode>  (1074) 
expansion

>  <fragmenstein_error>  (1074) 


$$$$
C50576-P68
     RDKit          3D

 43 45  0  0  0  0  0  0  0  0999 V2000
    6.7075  -17.4223   14.6861 C   0  0  0  0  0  0  0  0  0  0  0  0
    5.4946  -18.1379   15.2340 C   0  0  0  0  0  0  0  0  0  0  0  0
    5.0816  -19.4722   15.1626 C   0  0  0  0  0  0  0  0  0  0  0  0
    3.8204  -19.7917   15.8883 C   0  0  0  0  0  0  0  0  0  0  0  0
    3.0256  -21.2611   16.0006 C   0  0  0  0  0  0  0  0  0  0  0  0
    4.0860  -22.3682   16.1454 C   0  0  0  0  0  0  0  0  0  0  0  0
    2.2618  -21.4514   14.6767 C   0  0  0  0  0  0  0  0  0  0  0  0
    1.8829  -21.4194   17.2333 C   0  0  0  0  0  0  0  0  0  0  0  0
    1.6372  -20.4053   17.8337 O   0  0  0  0  0  0  0  0  0  0  0  0
    1.3253  -22.8030   17.3930 N   0  0  0  0  0  0  0  0  0  0  0  0
    0.3746  -23.3623   18.4050 C   0  0  0  0  0  0  0  0  0  0  0  0
   -0.2749  -24.7832   18.3917 C   0  0  0  0  0  0  0  0  0  0  0  0
   -1.1854  -25.2066   17.4179 C   0  0  0  0  0  0  0  0  0  0  0  0
   -1.9235  -26.4197   17.5565 C   0  0  0  0  0  0  0  0  0  0  0  0
   -1.8063  -27.2734   18.6530 C   0  0  0  0  0  0  0  0  0  0  0  0
   -2.5262  -28.4190   18.7234 N   0  0  0  0  0  0  0  0  0  0  0  0
   -2.3478  -29.2244   19.7922 C   0  0  0  0  0  0  0  0  0  0  0  0
   -1.4912  -28.9298   20.8312 C   0  0  0  0  0  0  0  0  0  0  0  0
   -0.7672  -27.7375   20.7611 C   0  0  0  0  0  0  0  0  0  0  0  0
   -0.9046  -26.8778   19.6546 C   0  0  0  0  0  0  0  0  0  0  0  0
   -0.1703  -25.6486   19.5176 C   0  0  0  0  0  0  0  0  0  0  0  0
    3.3864  -18.5987   16.4258 C   0  0  0  0  0  0  0  0  0  0  0  0
    4.3420  -17.2379   16.0991 S   0  0  0  0  0  0  0  0  0  0  0  0
    6.4237  -16.5235   14.1315 H   0  0  0  0  0  0  0  0  0  0  0  0
    7.3879  -17.1473   15.4961 H   0  0  0  0  0  0  0  0  0  0  0  0
    7.2493  -18.0815   13.9999 H   0  0  0  0  0  0  0  0  0  0  0  0
    5.6446  -20.2190   14.6165 H   0  0  0  0  0  0  0  0  0  0  0  0
    4.5640  -22.3238   17.1260 H   0  0  0  0  0  0  0  0  0  0  0  0
    3.6614  -23.3706   16.0378 H   0  0  0  0  0  0  0  0  0  0  0  0
    4.8706  -22.2853   15.3866 H   0  0  0  0  0  0  0  0  0  0  0  0
    1.7534  -22.4206   14.6375 H   0  0  0  0  0  0  0  0  0  0  0  0
    1.4965  -20.6755   14.5581 H   0  0  0  0  0  0  0  0  0  0  0  0
    2.9343  -21.3900   13.8138 H   0  0  0  0  0  0  0  0  0  0  0  0
    1.8168  -23.4318   16.7761 H   0  0  0  0  0  0  0  0  0  0  0  0
   -0.4454  -22.6357   18.4720 H   0  0  0  0  0  0  0  0  0  0  0  0
    0.9186  -23.2612   19.3529 H   0  0  0  0  0  0  0  0  0  0  0  0
   -1.3730  -24.5821   16.5454 H   0  0  0  0  0  0  0  0  0  0  0  0
   -2.6240  -26.6940   16.7687 H   0  0  0  0  0  0  0  0  0  0  0  0
   -2.9326  -30.1354   19.7860 H   0  0  0  0  0  0  0  0  0  0  0  0
   -1.3800  -29.6110   21.6666 H   0  0  0  0  0  0  0  0  0  0  0  0
   -0.0820  -27.4862   21.5667 H   0  0  0  0  0  0  0  0  0  0  0  0
    0.4921  -25.3560   20.3337 H   0  0  0  0  0  0  0  0  0  0  0  0
    2.5359  -18.4564   17.0584 H   0  0  0  0  0  0  0  0  0  0  0  0
  1  2  1  0
  2  3  2  0
  3  4  1  0
  4  5  1  0
  5  6  1  0
  5  7  1  0
  5  8  1  0
  8  9  2  0
  8 10  1  0
 10 11  1  0
 11 12  1  0
 12 13  2  0
 13 14  1  0
 14 15  2  0
 15 16  1  0
 16 17  2  0
 17 18  1  0
 18 19  2  0
 19 20  1  0
 20 21  2  0
  4 22  2  0
 22 23  1  0
 23  2  1  0
 21 12  1  0
 20 15  1  0
  1 24  1  0
  1 25  1  0
  1 26  1  0
  3 27  1  0
  6 28  1  0
  6 29  1  0
  6 30  1  0
  7 31  1  0
  7 32  1  0
  7 33  1  0
 10 34  1  0
 11 35  1  0
 11 36  1  0
 13 37  1  0
 14 38  1  0
 17 39  1  0
 18 40  1  0
 19 41  1  0
 21 42  1  0
 22 43  1  0
M  END
>  <Energy>  (1075) 
91.421657376510254

>  <compound_id>  (1075) 
50576

>  <target_id>  (1075) 
1

>  <reference_id>  (1075) 
68

>  <inspiration_ids>  (1075) 
[76, 68]

>  <energy_score>  (1075) 
-5.937592141959101

>  <distance_score>  (1075) 
15.925991332774958

>  <path>  (1075) 
/opt/xchem-fragalysis-2/maxwin/BulkDock/SCRATCH/511021/C50576-P68/C50576-P68.minimised.mol

>  <scratch_subdir>  (1075) 
/opt/xchem-fragalysis-2/maxwin/BulkDock/SCRATCH/511021/C50576-P68

>  <fragmenstein_runtime>  (1075) 
22.864633560180664

>  <fragmenstein_outcome>  (1075) 
too moved

>  <fragmenstein_mode>  (1075) 
expansion

>  <fragmenstein_error>  (1075) 


$$$$
C50580-P76
     RDKit          3D

 32 35  0  0  0  0  0  0  0  0999 V2000
    3.2309  -11.4086   17.0506 C   0  0  0  0  0  0  0  0  0  0  0  0
    2.9312  -12.8100   17.5245 C   0  0  0  0  0  0  0  0  0  0  0  0
    3.8266  -13.7896   17.7695 C   0  0  0  0  0  0  0  0  0  0  0  0
    3.2415  -14.9822   18.3564 C   0  0  0  0  0  0  0  0  0  0  0  0
    1.8830  -15.1746   18.7847 C   0  0  0  0  0  0  0  0  0  0  0  0
    0.6221  -16.4067   19.7659 C   0  0  0  0  0  0  0  0  0  0  0  0
   -0.8727  -16.7927   20.2487 N   0  0  0  0  0  0  0  0  0  0  0  0
   -1.6357  -18.2864   19.6382 C   0  0  0  0  0  0  0  0  0  0  0  0
   -3.0496  -19.5704   19.6997 C   0  0  0  0  0  0  0  0  0  0  0  0
   -2.9691  -20.8839   20.2907 C   0  0  0  0  0  0  0  0  0  0  0  0
   -3.1604  -22.6014   19.6279 C   0  0  0  0  0  0  0  0  0  0  0  0
   -3.7197  -23.4159   18.7966 C   0  0  0  0  0  0  0  0  0  0  0  0
   -4.2409  -24.7630   18.8863 N   0  0  0  0  0  0  0  0  0  0  0  0
   -5.2242  -25.1419   18.0342 C   0  0  0  0  0  0  0  0  0  0  0  0
   -5.6802  -24.3063   17.0359 C   0  0  0  0  0  0  0  0  0  0  0  0
   -5.0080  -23.0430   16.9073 C   0  0  0  0  0  0  0  0  0  0  0  0
   -3.7588  -22.4080   17.9312 C   0  0  0  0  0  0  0  0  0  0  0  0
   -3.5849  -20.5281   18.6177 C   0  0  0  0  0  0  0  0  0  0  0  0
   -0.7835  -18.4571   18.6390 N   0  0  0  0  0  0  0  0  0  0  0  0
    0.5897  -17.9431   19.0089 O   0  0  0  0  0  0  0  0  0  0  0  0
    1.3530  -13.4466   17.6542 S   0  0  0  0  0  0  0  0  0  0  0  0
    3.0352  -11.3243   15.9770 H   0  0  0  0  0  0  0  0  0  0  0  0
    4.2793  -11.1517   17.2332 H   0  0  0  0  0  0  0  0  0  0  0  0
    2.6060  -10.6835   17.5816 H   0  0  0  0  0  0  0  0  0  0  0  0
    4.8966  -13.6782   17.6347 H   0  0  0  0  0  0  0  0  0  0  0  0
    4.0194  -15.6462   18.6430 H   0  0  0  0  0  0  0  0  0  0  0  0
   -2.3641  -20.9401   21.1963 H   0  0  0  0  0  0  0  0  0  0  0  0
   -3.2327  -23.5535   20.2162 H   0  0  0  0  0  0  0  0  0  0  0  0
   -5.6238  -26.1383   18.1837 H   0  0  0  0  0  0  0  0  0  0  0  0
   -6.4790  -24.5914   16.3655 H   0  0  0  0  0  0  0  0  0  0  0  0
   -5.4487  -22.3575   16.1798 H   0  0  0  0  0  0  0  0  0  0  0  0
   -4.1004  -19.6903   18.0178 H   0  0  0  0  0  0  0  0  0  0  0  0
  1  2  1  0
  2  3  2  0
  3  4  1  0
  4  5  2  0
  5  6  1  0
  6  7  2  0
  7  8  1  0
  8  9  1  0
  9 10  2  0
 10 11  1  0
 11 12  2  0
 12 13  1  0
 13 14  2  0
 14 15  1  0
 15 16  2  0
 16 17  1  0
 17 18  2  0
  8 19  2  0
 19 20  1  0
  5 21  1  0
 21  2  1  0
 20  6  1  0
 18  9  1  0
 17 12  1  0
  1 22  1  0
  1 23  1  0
  1 24  1  0
  3 25  1  0
  4 26  1  0
 10 27  1  0
 11 28  1  0
 14 29  1  0
 15 30  1  0
 16 31  1  0
 18 32  1  0
M  END
>  <Energy>  (1076) 
853.10399307275566

>  <compound_id>  (1076) 
50580

>  <target_id>  (1076) 
1

>  <reference_id>  (1076) 
76

>  <inspiration_ids>  (1076) 
[76, 68]

>  <energy_score>  (1076) 
750.4814786809656

>  <distance_score>  (1076) 
16.07567079748907

>  <path>  (1076) 
/opt/xchem-fragalysis-2/maxwin/BulkDock/SCRATCH/511021/C50580-P76/C50580-P76.minimised.mol

>  <scratch_subdir>  (1076) 
/opt/xchem-fragalysis-2/maxwin/BulkDock/SCRATCH/511021/C50580-P76

>  <fragmenstein_runtime>  (1076) 
5.061595916748047

>  <fragmenstein_outcome>  (1076) 
too moved

>  <fragmenstein_mode>  (1076) 
expansion

>  <fragmenstein_error>  (1076) 


$$$$
C50580-P68
     RDKit          3D

 32 35  0  0  0  0  0  0  0  0999 V2000
    1.5701  -28.2424   18.7499 C   0  0  0  0  0  0  0  0  0  0  0  0
    1.1490  -29.4885   19.5515 C   0  0  0  0  0  0  0  0  0  0  0  0
    1.4304  -29.7608   20.8704 C   0  0  0  0  0  0  0  0  0  0  0  0
    0.8569  -31.0205   21.3238 C   0  0  0  0  0  0  0  0  0  0  0  0
    0.1203  -31.7914   20.3925 C   0  0  0  0  0  0  0  0  0  0  0  0
   -0.7232  -33.1551   20.7813 C   0  0  0  0  0  0  0  0  0  0  0  0
   -1.7322  -34.1502   20.0603 N   0  0  0  0  0  0  0  0  0  0  0  0
   -3.3665  -34.4692   21.3322 C   0  0  0  0  0  0  0  0  0  0  0  0
   -4.6641  -35.8057   21.4621 C   0  0  0  0  0  0  0  0  0  0  0  0
   -4.6728  -37.0367   20.7747 C   0  0  0  0  0  0  0  0  0  0  0  0
   -5.7029  -37.9972   20.9009 C   0  0  0  0  0  0  0  0  0  0  0  0
   -6.7445  -37.8548   21.7898 C   0  0  0  0  0  0  0  0  0  0  0  0
   -7.6702  -38.8232   21.9007 N   0  0  0  0  0  0  0  0  0  0  0  0
   -8.6254  -38.6687   22.8418 C   0  0  0  0  0  0  0  0  0  0  0  0
   -8.7173  -37.5683   23.6703 C   0  0  0  0  0  0  0  0  0  0  0  0
   -7.7634  -36.5699   23.5324 C   0  0  0  0  0  0  0  0  0  0  0  0
   -6.7439  -36.7052   22.5798 C   0  0  0  0  0  0  0  0  0  0  0  0
   -5.7193  -35.7380   22.4198 C   0  0  0  0  0  0  0  0  0  0  0  0
   -2.7071  -33.5431   22.6032 N   0  0  0  0  0  0  0  0  0  0  0  0
   -1.1811  -33.2534   22.2682 O   0  0  0  0  0  0  0  0  0  0  0  0
    0.1850  -30.8224   18.8991 S   0  0  0  0  0  0  0  0  0  0  0  0
    2.1282  -28.5485   17.8602 H   0  0  0  0  0  0  0  0  0  0  0  0
    2.2047  -27.5927   19.3601 H   0  0  0  0  0  0  0  0  0  0  0  0
    0.6796  -27.6847   18.4451 H   0  0  0  0  0  0  0  0  0  0  0  0
    2.0033  -29.1028   21.5126 H   0  0  0  0  0  0  0  0  0  0  0  0
    0.9626  -31.3564   22.3496 H   0  0  0  0  0  0  0  0  0  0  0  0
   -3.8692  -37.3496   20.1287 H   0  0  0  0  0  0  0  0  0  0  0  0
   -5.6439  -38.9084   20.3099 H   0  0  0  0  0  0  0  0  0  0  0  0
   -9.3378  -39.4852   22.9164 H   0  0  0  0  0  0  0  0  0  0  0  0
   -9.5008  -37.4969   24.4156 H   0  0  0  0  0  0  0  0  0  0  0  0
   -7.8111  -35.6983   24.1796 H   0  0  0  0  0  0  0  0  0  0  0  0
   -5.7501  -34.9630   23.1471 H   0  0  0  0  0  0  0  0  0  0  0  0
  1  2  1  0
  2  3  2  0
  3  4  1  0
  4  5  2  0
  5  6  1  0
  6  7  2  0
  7  8  1  0
  8  9  1  0
  9 10  2  0
 10 11  1  0
 11 12  2  0
 12 13  1  0
 13 14  2  0
 14 15  1  0
 15 16  2  0
 16 17  1  0
 17 18  2  0
  8 19  2  0
 19 20  1  0
  5 21  1  0
 21  2  1  0
 20  6  1  0
 18  9  1  0
 17 12  1  0
  1 22  1  0
  1 23  1  0
  1 24  1  0
  3 25  1  0
  4 26  1  0
 10 27  1  0
 11 28  1  0
 14 29  1  0
 15 30  1  0
 16 31  1  0
 18 32  1  0
M  END
>  <Energy>  (1077) 
424.79645919487058

>  <compound_id>  (1077) 
50580

>  <target_id>  (1077) 
1

>  <reference_id>  (1077) 
68

>  <inspiration_ids>  (1077) 
[76, 68]

>  <energy_score>  (1077) 
322.17394480308593

>  <distance_score>  (1077) 
20.007097560282098

>  <path>  (1077) 
/opt/xchem-fragalysis-2/maxwin/BulkDock/SCRATCH/511021/C50580-P68/C50580-P68.minimised.mol

>  <scratch_subdir>  (1077) 
/opt/xchem-fragalysis-2/maxwin/BulkDock/SCRATCH/511021/C50580-P68

>  <fragmenstein_runtime>  (1077) 
9.024312734603882

>  <fragmenstein_outcome>  (1077) 
too moved

>  <fragmenstein_mode>  (1077) 
expansion

>  <fragmenstein_error>  (1077) 


$$$$
C50583-P76
     RDKit          3D

 32 34  0  0  0  0  0  0  0  0999 V2000
    6.3672   -8.6638   19.5100 C   0  0  0  0  0  0  0  0  0  0  0  0
    5.6108   -9.7734   18.8487 C   0  0  0  0  0  0  0  0  0  0  0  0
    5.4023  -11.0564   19.3094 C   0  0  0  0  0  0  0  0  0  0  0  0
    4.4623  -11.9028   18.5202 C   0  0  0  0  0  0  0  0  0  0  0  0
    4.1408  -13.4159   19.1385 C   0  0  0  0  0  0  0  0  0  0  0  0
    4.2494  -13.0061   20.4956 F   0  0  0  0  0  0  0  0  0  0  0  0
    5.3389  -14.0599   18.8152 F   0  0  0  0  0  0  0  0  0  0  0  0
    2.7129  -14.7730   18.9798 C   0  0  0  0  0  0  0  0  0  0  0  0
    2.6385  -15.1638   17.8346 O   0  0  0  0  0  0  0  0  0  0  0  0
    1.6592  -15.3091   20.3544 N   0  0  0  0  0  0  0  0  0  0  0  0
    0.1627  -16.4300   20.3766 C   0  0  0  0  0  0  0  0  0  0  0  0
   -1.4631  -15.8457   20.2379 C   0  0  0  0  0  0  0  0  0  0  0  0
   -2.6153  -16.3812   19.8701 C   0  0  0  0  0  0  0  0  0  0  0  0
   -2.7363  -17.5222   19.2686 N   0  0  0  0  0  0  0  0  0  0  0  0
   -3.8352  -17.9532   18.6249 N   0  0  0  0  0  0  0  0  0  0  0  0
   -3.9572  -19.1627   19.1136 C   0  0  0  0  0  0  0  0  0  0  0  0
   -2.7574  -19.4122   19.7992 C   0  0  0  0  0  0  0  0  0  0  0  0
   -1.7781  -18.3817   19.6239 C   0  0  0  0  0  0  0  0  0  0  0  0
   -0.2626  -17.7690   20.0047 C   0  0  0  0  0  0  0  0  0  0  0  0
    4.1512  -11.1490   17.4020 C   0  0  0  0  0  0  0  0  0  0  0  0
    4.8494   -9.5691   17.3467 S   0  0  0  0  0  0  0  0  0  0  0  0
    5.9658   -8.4970   20.5158 H   0  0  0  0  0  0  0  0  0  0  0  0
    6.2826   -7.7180   18.9680 H   0  0  0  0  0  0  0  0  0  0  0  0
    7.4174   -8.9482   19.6169 H   0  0  0  0  0  0  0  0  0  0  0  0
    5.8357  -11.4083   20.2401 H   0  0  0  0  0  0  0  0  0  0  0  0
    1.8712  -14.7751   21.1524 H   0  0  0  0  0  0  0  0  0  0  0  0
   -1.8640  -14.9406   20.7319 H   0  0  0  0  0  0  0  0  0  0  0  0
   -3.5767  -16.0153   20.1731 H   0  0  0  0  0  0  0  0  0  0  0  0
   -4.8587  -19.7454   18.9909 H   0  0  0  0  0  0  0  0  0  0  0  0
   -2.6896  -20.3382   20.3703 H   0  0  0  0  0  0  0  0  0  0  0  0
    0.4534  -18.2111   19.3461 H   0  0  0  0  0  0  0  0  0  0  0  0
    3.5112  -11.3792   16.5673 H   0  0  0  0  0  0  0  0  0  0  0  0
  1  2  1  0
  2  3  2  0
  3  4  1  0
  4  5  1  0
  5  6  1  0
  5  7  1  0
  5  8  1  0
  8  9  2  0
  8 10  1  0
 10 11  1  0
 11 12  1  0
 12 13  2  0
 13 14  1  0
 14 15  1  0
 15 16  2  0
 16 17  1  0
 17 18  2  0
 18 19  1  0
  4 20  2  0
 20 21  1  0
 21  2  1  0
 19 11  2  0
 18 14  1  0
  1 22  1  0
  1 23  1  0
  1 24  1  0
  3 25  1  0
 10 26  1  0
 12 27  1  0
 13 28  1  0
 16 29  1  0
 17 30  1  0
 19 31  1  0
 20 32  1  0
M  END
>  <Energy>  (1078) 
509.53536019629018

>  <compound_id>  (1078) 
50583

>  <target_id>  (1078) 
1

>  <reference_id>  (1078) 
76

>  <inspiration_ids>  (1078) 
[76, 68]

>  <energy_score>  (1078) 
358.9175227888114

>  <distance_score>  (1078) 
16.935753364775465

>  <path>  (1078) 
/opt/xchem-fragalysis-2/maxwin/BulkDock/SCRATCH/511021/C50583-P76/C50583-P76.minimised.mol

>  <scratch_subdir>  (1078) 
/opt/xchem-fragalysis-2/maxwin/BulkDock/SCRATCH/511021/C50583-P76

>  <fragmenstein_runtime>  (1078) 
5.642597675323486

>  <fragmenstein_outcome>  (1078) 
too moved

>  <fragmenstein_mode>  (1078) 
expansion

>  <fragmenstein_error>  (1078) 


$$$$
C50583-P68
     RDKit          3D

 32 34  0  0  0  0  0  0  0  0999 V2000
    4.6784  -17.9110   15.5170 C   0  0  0  0  0  0  0  0  0  0  0  0
    4.4016  -19.3612   15.8487 C   0  0  0  0  0  0  0  0  0  0  0  0
    3.2982  -19.9632   16.4541 C   0  0  0  0  0  0  0  0  0  0  0  0
    3.4297  -21.4186   16.7425 C   0  0  0  0  0  0  0  0  0  0  0  0
    2.3372  -22.2990   17.5346 C   0  0  0  0  0  0  0  0  0  0  0  0
    1.1307  -22.1439   16.8956 F   0  0  0  0  0  0  0  0  0  0  0  0
    2.0809  -21.7091   18.7482 F   0  0  0  0  0  0  0  0  0  0  0  0
    2.4712  -23.9688   17.7866 C   0  0  0  0  0  0  0  0  0  0  0  0
    3.4825  -24.5846   17.5419 O   0  0  0  0  0  0  0  0  0  0  0  0
    1.1337  -24.4437   18.3720 N   0  0  0  0  0  0  0  0  0  0  0  0
    0.6726  -25.7519   18.7042 C   0  0  0  0  0  0  0  0  0  0  0  0
   -0.8099  -25.9193   18.7317 C   0  0  0  0  0  0  0  0  0  0  0  0
   -1.4127  -27.0368   19.1694 C   0  0  0  0  0  0  0  0  0  0  0  0
   -0.6532  -28.1057   19.6002 N   0  0  0  0  0  0  0  0  0  0  0  0
   -1.1124  -29.2739   20.1086 N   0  0  0  0  0  0  0  0  0  0  0  0
   -0.0178  -29.9843   20.3647 C   0  0  0  0  0  0  0  0  0  0  0  0
    1.1603  -29.2803   20.0462 C   0  0  0  0  0  0  0  0  0  0  0  0
    0.7428  -28.0589   19.5532 C   0  0  0  0  0  0  0  0  0  0  0  0
    1.3964  -26.8448   19.0627 C   0  0  0  0  0  0  0  0  0  0  0  0
    4.6476  -21.8158   16.2099 C   0  0  0  0  0  0  0  0  0  0  0  0
    5.5719  -20.5508   15.4718 S   0  0  0  0  0  0  0  0  0  0  0  0
    3.9342  -17.2659   15.9938 H   0  0  0  0  0  0  0  0  0  0  0  0
    4.6280  -17.7723   14.4332 H   0  0  0  0  0  0  0  0  0  0  0  0
    5.6713  -17.6110   15.8650 H   0  0  0  0  0  0  0  0  0  0  0  0
    2.4162  -19.4056   16.7435 H   0  0  0  0  0  0  0  0  0  0  0  0
    0.4718  -23.6721   18.3654 H   0  0  0  0  0  0  0  0  0  0  0  0
   -1.4376  -25.1106   18.3776 H   0  0  0  0  0  0  0  0  0  0  0  0
   -2.4862  -27.1656   19.2049 H   0  0  0  0  0  0  0  0  0  0  0  0
   -0.1188  -30.9831   20.7709 H   0  0  0  0  0  0  0  0  0  0  0  0
    2.1806  -29.6182   20.1573 H   0  0  0  0  0  0  0  0  0  0  0  0
    2.4820  -26.8003   19.0708 H   0  0  0  0  0  0  0  0  0  0  0  0
    5.0630  -22.8151   16.2145 H   0  0  0  0  0  0  0  0  0  0  0  0
  1  2  1  0
  2  3  2  0
  3  4  1  0
  4  5  1  0
  5  6  1  0
  5  7  1  0
  5  8  1  0
  8  9  2  0
  8 10  1  0
 10 11  1  0
 11 12  1  0
 12 13  2  0
 13 14  1  0
 14 15  1  0
 15 16  2  0
 16 17  1  0
 17 18  2  0
 18 19  1  0
  4 20  2  0
 20 21  1  0
 21  2  1  0
 19 11  2  0
 18 14  1  0
  1 22  1  0
  1 23  1  0
  1 24  1  0
  3 25  1  0
 10 26  1  0
 12 27  1  0
 13 28  1  0
 16 29  1  0
 17 30  1  0
 19 31  1  0
 20 32  1  0
M  END
>  <Energy>  (1079) 
132.45274179866055

>  <compound_id>  (1079) 
50583

>  <target_id>  (1079) 
1

>  <reference_id>  (1079) 
68

>  <inspiration_ids>  (1079) 
[76, 68]

>  <energy_score>  (1079) 
-18.165095608816102

>  <distance_score>  (1079) 
16.688588539616884

>  <path>  (1079) 
/opt/xchem-fragalysis-2/maxwin/BulkDock/SCRATCH/511021/C50583-P68/C50583-P68.minimised.mol

>  <scratch_subdir>  (1079) 
/opt/xchem-fragalysis-2/maxwin/BulkDock/SCRATCH/511021/C50583-P68

>  <fragmenstein_runtime>  (1079) 
13.228385925292969

>  <fragmenstein_outcome>  (1079) 
too moved

>  <fragmenstein_mode>  (1079) 
expansion

>  <fragmenstein_error>  (1079) 


$$$$
C50584-P76
     RDKit          3D

 29 31  0  0  0  0  0  0  0  0999 V2000
    3.3495  -12.2638   19.9589 C   0  0  0  0  0  0  0  0  0  0  0  0
    2.5728  -13.5590   20.0635 C   0  0  0  0  0  0  0  0  0  0  0  0
    1.9602  -14.2791   21.1601 C   0  0  0  0  0  0  0  0  0  0  0  0
    0.8039  -15.8177   20.7615 C   0  0  0  0  0  0  0  0  0  0  0  0
   -0.5620  -16.8635   20.9180 C   0  0  0  0  0  0  0  0  0  0  0  0
   -1.2566  -17.8804   19.8094 O   0  0  0  0  0  0  0  0  0  0  0  0
   -2.6981  -18.1233   19.6156 C   0  0  0  0  0  0  0  0  0  0  0  0
   -3.2038  -19.5125   19.7162 C   0  0  0  0  0  0  0  0  0  0  0  0
   -4.4173  -19.9809   19.3992 C   0  0  0  0  0  0  0  0  0  0  0  0
   -5.3727  -19.0688   19.0782 N   0  0  0  0  0  0  0  0  0  0  0  0
   -6.6759  -19.3320   18.8343 N   0  0  0  0  0  0  0  0  0  0  0  0
   -7.2479  -18.1349   18.8178 C   0  0  0  0  0  0  0  0  0  0  0  0
   -6.3119  -17.0939   18.9826 C   0  0  0  0  0  0  0  0  0  0  0  0
   -5.0829  -17.7024   19.1225 C   0  0  0  0  0  0  0  0  0  0  0  0
   -3.6984  -17.2409   19.3343 C   0  0  0  0  0  0  0  0  0  0  0  0
    0.9323  -15.9549   19.4420 C   0  0  0  0  0  0  0  0  0  0  0  0
    2.4791  -14.6511   18.5997 S   0  0  0  0  0  0  0  0  0  0  0  0
    4.2965  -12.4111   19.4309 H   0  0  0  0  0  0  0  0  0  0  0  0
    2.7552  -11.5203   19.4193 H   0  0  0  0  0  0  0  0  0  0  0  0
    3.5666  -11.8766   20.9589 H   0  0  0  0  0  0  0  0  0  0  0  0
    1.8320  -13.7565   22.1218 H   0  0  0  0  0  0  0  0  0  0  0  0
   -1.2654  -16.1051   20.6110 H   0  0  0  0  0  0  0  0  0  0  0  0
   -0.5165  -17.4853   21.8034 H   0  0  0  0  0  0  0  0  0  0  0  0
   -2.6524  -20.2252   20.3076 H   0  0  0  0  0  0  0  0  0  0  0  0
   -4.7455  -20.9999   19.5400 H   0  0  0  0  0  0  0  0  0  0  0  0
   -8.3172  -18.0585   18.6676 H   0  0  0  0  0  0  0  0  0  0  0  0
   -6.5072  -16.0309   18.9864 H   0  0  0  0  0  0  0  0  0  0  0  0
   -3.4918  -16.1796   19.2511 H   0  0  0  0  0  0  0  0  0  0  0  0
    0.9757  -17.0465   19.0163 H   0  0  0  0  0  0  0  0  0  0  0  0
  1  2  1  0
  2  3  2  0
  3  4  1  0
  4  5  1  0
  5  6  1  0
  6  7  1  0
  7  8  1  0
  8  9  2  0
  9 10  1  0
 10 11  1  0
 11 12  2  0
 12 13  1  0
 13 14  2  0
 14 15  1  0
  4 16  2  0
 16 17  1  0
 17  2  1  0
 15  7  2  0
 14 10  1  0
  1 18  1  0
  1 19  1  0
  1 20  1  0
  3 21  1  0
  5 22  1  0
  5 23  1  0
  8 24  1  0
  9 25  1  0
 12 26  1  0
 13 27  1  0
 15 28  1  0
 16 29  1  0
M  END
>  <Energy>  (1080) 
284.91758918460829

>  <compound_id>  (1080) 
50584

>  <target_id>  (1080) 
1

>  <reference_id>  (1080) 
76

>  <inspiration_ids>  (1080) 
[76, 68]

>  <energy_score>  (1080) 
209.40030134515143

>  <distance_score>  (1080) 
17.91444128988947

>  <path>  (1080) 
/opt/xchem-fragalysis-2/maxwin/BulkDock/SCRATCH/511021/C50584-P76/C50584-P76.minimised.mol

>  <scratch_subdir>  (1080) 
/opt/xchem-fragalysis-2/maxwin/BulkDock/SCRATCH/511021/C50584-P76

>  <fragmenstein_runtime>  (1080) 
3.632126808166504

>  <fragmenstein_outcome>  (1080) 
too moved

>  <fragmenstein_mode>  (1080) 
expansion

>  <fragmenstein_error>  (1080) 


$$$$
C50584-P68
     RDKit          3D

 29 31  0  0  0  0  0  0  0  0999 V2000
    4.7232  -17.9483   15.4829 C   0  0  0  0  0  0  0  0  0  0  0  0
    4.5551  -19.4238   15.7768 C   0  0  0  0  0  0  0  0  0  0  0  0
    3.4798  -20.1329   16.3215 C   0  0  0  0  0  0  0  0  0  0  0  0
    3.7287  -21.5753   16.5680 C   0  0  0  0  0  0  0  0  0  0  0  0
    2.7273  -22.6217   17.3262 C   0  0  0  0  0  0  0  0  0  0  0  0
    2.9696  -24.0734   17.1388 O   0  0  0  0  0  0  0  0  0  0  0  0
    2.2523  -25.1492   17.7298 C   0  0  0  0  0  0  0  0  0  0  0  0
    2.5691  -26.4377   17.0923 C   0  0  0  0  0  0  0  0  0  0  0  0
    1.9522  -27.5811   17.4453 C   0  0  0  0  0  0  0  0  0  0  0  0
    1.0022  -27.5902   18.4569 N   0  0  0  0  0  0  0  0  0  0  0  0
    0.3023  -28.6663   18.8992 N   0  0  0  0  0  0  0  0  0  0  0  0
   -0.4621  -28.2026   19.8828 C   0  0  0  0  0  0  0  0  0  0  0  0
   -0.2575  -26.8294   20.1047 C   0  0  0  0  0  0  0  0  0  0  0  0
    0.6719  -26.4217   19.1584 C   0  0  0  0  0  0  0  0  0  0  0  0
    1.3361  -25.1737   18.7481 C   0  0  0  0  0  0  0  0  0  0  0  0
    4.9990  -21.8525   16.0819 C   0  0  0  0  0  0  0  0  0  0  0  0
    5.8441  -20.4951   15.4265 S   0  0  0  0  0  0  0  0  0  0  0  0
    4.7225  -17.7904   14.4003 H   0  0  0  0  0  0  0  0  0  0  0  0
    5.6619  -17.5676   15.8966 H   0  0  0  0  0  0  0  0  0  0  0  0
    3.8975  -17.3808   15.9231 H   0  0  0  0  0  0  0  0  0  0  0  0
    2.5431  -19.6540   16.5846 H   0  0  0  0  0  0  0  0  0  0  0  0
    1.7147  -22.4084   16.9689 H   0  0  0  0  0  0  0  0  0  0  0  0
    2.7844  -22.3944   18.3932 H   0  0  0  0  0  0  0  0  0  0  0  0
    3.3108  -26.4288   16.2994 H   0  0  0  0  0  0  0  0  0  0  0  0
    2.1550  -28.5334   16.9745 H   0  0  0  0  0  0  0  0  0  0  0  0
   -1.1235  -28.8833   20.4035 H   0  0  0  0  0  0  0  0  0  0  0  0
   -0.7508  -26.2511   20.8653 H   0  0  0  0  0  0  0  0  0  0  0  0
    1.1055  -24.2456   19.2556 H   0  0  0  0  0  0  0  0  0  0  0  0
    5.4892  -22.8162   16.0842 H   0  0  0  0  0  0  0  0  0  0  0  0
  1  2  1  0
  2  3  2  0
  3  4  1  0
  4  5  1  0
  5  6  1  0
  6  7  1  0
  7  8  1  0
  8  9  2  0
  9 10  1  0
 10 11  1  0
 11 12  2  0
 12 13  1  0
 13 14  2  0
 14 15  1  0
  4 16  2  0
 16 17  1  0
 17  2  1  0
 15  7  2  0
 14 10  1  0
  1 18  1  0
  1 19  1  0
  1 20  1  0
  3 21  1  0
  5 22  1  0
  5 23  1  0
  8 24  1  0
  9 25  1  0
 12 26  1  0
 13 27  1  0
 15 28  1  0
 16 29  1  0
M  END
>  <Energy>  (1081) 
53.476511770737751

>  <compound_id>  (1081) 
50584

>  <target_id>  (1081) 
1

>  <reference_id>  (1081) 
68

>  <inspiration_ids>  (1081) 
[76, 68]

>  <energy_score>  (1081) 
-22.0407760687186

>  <distance_score>  (1081) 
17.36261169288742

>  <path>  (1081) 
/opt/xchem-fragalysis-2/maxwin/BulkDock/SCRATCH/511021/C50584-P68/C50584-P68.minimised.mol

>  <scratch_subdir>  (1081) 
/opt/xchem-fragalysis-2/maxwin/BulkDock/SCRATCH/511021/C50584-P68

>  <fragmenstein_runtime>  (1081) 
13.485299587249756

>  <fragmenstein_outcome>  (1081) 
too moved

>  <fragmenstein_mode>  (1081) 
expansion

>  <fragmenstein_error>  (1081) 


$$$$
C50585-P76
     RDKit          3D

 35 37  0  0  0  0  0  0  0  0999 V2000
    1.7647  -16.0259   27.8930 C   0  0  0  0  0  0  0  0  0  0  0  0
    1.8773  -17.2987   27.1290 C   0  0  0  0  0  0  0  0  0  0  0  0
    2.7408  -17.6251   26.1137 C   0  0  0  0  0  0  0  0  0  0  0  0
    2.5162  -18.9654   25.6543 C   0  0  0  0  0  0  0  0  0  0  0  0
    1.4857  -19.6442   26.2974 C   0  0  0  0  0  0  0  0  0  0  0  0
    1.1423  -21.1824   26.1703 C   0  0  0  0  0  0  0  0  0  0  0  0
    1.7830  -21.9101   27.3635 C   0  0  0  0  0  0  0  0  0  0  0  0
   -0.3741  -21.6748   25.9965 C   0  0  0  0  0  0  0  0  0  0  0  0
   -1.2886  -20.9106   26.1643 O   0  0  0  0  0  0  0  0  0  0  0  0
   -0.3757  -23.1455   25.6592 N   0  0  0  0  0  0  0  0  0  0  0  0
   -1.4368  -24.0610   25.5362 C   0  0  0  0  0  0  0  0  0  0  0  0
   -2.8343  -23.6672   25.7359 C   0  0  0  0  0  0  0  0  0  0  0  0
   -3.8270  -24.5785   25.6527 C   0  0  0  0  0  0  0  0  0  0  0  0
   -3.5571  -25.9152   25.3717 N   0  0  0  0  0  0  0  0  0  0  0  0
   -4.4482  -26.9338   25.2693 N   0  0  0  0  0  0  0  0  0  0  0  0
   -3.7115  -28.0070   24.9812 C   0  0  0  0  0  0  0  0  0  0  0  0
   -2.3385  -27.7087   24.9037 C   0  0  0  0  0  0  0  0  0  0  0  0
   -2.2526  -26.3541   25.1573 C   0  0  0  0  0  0  0  0  0  0  0  0
   -1.1921  -25.3753   25.2458 C   0  0  0  0  0  0  0  0  0  0  0  0
    0.7977  -18.5917   27.4648 S   0  0  0  0  0  0  0  0  0  0  0  0
    1.8981  -16.2022   28.9654 H   0  0  0  0  0  0  0  0  0  0  0  0
    0.7855  -15.5626   27.7332 H   0  0  0  0  0  0  0  0  0  0  0  0
    2.5296  -15.3101   27.5741 H   0  0  0  0  0  0  0  0  0  0  0  0
    3.4680  -16.9310   25.7198 H   0  0  0  0  0  0  0  0  0  0  0  0
    3.0699  -19.4470   24.8619 H   0  0  0  0  0  0  0  0  0  0  0  0
    1.6538  -21.5116   25.2561 H   0  0  0  0  0  0  0  0  0  0  0  0
    1.2552  -21.6751   28.2947 H   0  0  0  0  0  0  0  0  0  0  0  0
    1.7582  -22.9973   27.2440 H   0  0  0  0  0  0  0  0  0  0  0  0
    2.8324  -21.6199   27.4884 H   0  0  0  0  0  0  0  0  0  0  0  0
    0.5764  -23.4546   25.5099 H   0  0  0  0  0  0  0  0  0  0  0  0
   -3.0633  -22.6294   25.9546 H   0  0  0  0  0  0  0  0  0  0  0  0
   -4.8697  -24.3287   25.7969 H   0  0  0  0  0  0  0  0  0  0  0  0
   -4.2046  -28.9607   24.8404 H   0  0  0  0  0  0  0  0  0  0  0  0
   -1.5250  -28.3861   24.6889 H   0  0  0  0  0  0  0  0  0  0  0  0
   -0.1774  -25.7274   25.0904 H   0  0  0  0  0  0  0  0  0  0  0  0
  1  2  1  0
  2  3  2  0
  3  4  1  0
  4  5  2  0
  5  6  1  0
  6  7  1  0
  6  8  1  0
  8  9  2  0
  8 10  1  0
 10 11  1  0
 11 12  1  0
 12 13  2  0
 13 14  1  0
 14 15  1  0
 15 16  2  0
 16 17  1  0
 17 18  2  0
 18 19  1  0
  5 20  1  0
 20  2  1  0
 19 11  2  0
 18 14  1  0
  1 21  1  0
  1 22  1  0
  1 23  1  0
  3 24  1  0
  4 25  1  0
  6 26  1  0
  7 27  1  0
  7 28  1  0
  7 29  1  0
 10 30  1  0
 12 31  1  0
 13 32  1  0
 16 33  1  0
 17 34  1  0
 19 35  1  0
M  END
>  <Energy>  (1082) 
55.257064904537785

>  <compound_id>  (1082) 
50585

>  <target_id>  (1082) 
1

>  <reference_id>  (1082) 
76

>  <inspiration_ids>  (1082) 
[76, 68]

>  <energy_score>  (1082) 
-46.589532305813464

>  <distance_score>  (1082) 
20.058237475764248

>  <path>  (1082) 
/opt/xchem-fragalysis-2/maxwin/BulkDock/SCRATCH/511021/C50585-P76/C50585-P76.minimised.mol

>  <scratch_subdir>  (1082) 
/opt/xchem-fragalysis-2/maxwin/BulkDock/SCRATCH/511021/C50585-P76

>  <fragmenstein_runtime>  (1082) 
7.143821477890015

>  <fragmenstein_outcome>  (1082) 
too moved

>  <fragmenstein_mode>  (1082) 
expansion

>  <fragmenstein_error>  (1082) 


$$$$
C50585-P68
     RDKit          3D

 35 37  0  0  0  0  0  0  0  0999 V2000
    4.0572  -17.8308   15.6872 C   0  0  0  0  0  0  0  0  0  0  0  0
    3.9634  -19.3022   15.7632 C   0  0  0  0  0  0  0  0  0  0  0  0
    4.7280  -20.2146   15.0814 C   0  0  0  0  0  0  0  0  0  0  0  0
    4.3548  -21.5552   15.4061 C   0  0  0  0  0  0  0  0  0  0  0  0
    3.3382  -21.6589   16.3572 C   0  0  0  0  0  0  0  0  0  0  0  0
    2.8701  -22.9152   17.1951 C   0  0  0  0  0  0  0  0  0  0  0  0
    3.9643  -23.9970   17.1323 C   0  0  0  0  0  0  0  0  0  0  0  0
    1.4590  -23.6203   16.9432 C   0  0  0  0  0  0  0  0  0  0  0  0
    0.8297  -23.3983   15.9413 O   0  0  0  0  0  0  0  0  0  0  0  0
    1.1833  -24.5719   18.0843 N   0  0  0  0  0  0  0  0  0  0  0  0
    0.1693  -25.5312   18.2585 C   0  0  0  0  0  0  0  0  0  0  0  0
   -0.8677  -25.7706   17.2491 C   0  0  0  0  0  0  0  0  0  0  0  0
   -1.7766  -26.7567   17.4109 C   0  0  0  0  0  0  0  0  0  0  0  0
   -1.7656  -27.5651   18.5458 N   0  0  0  0  0  0  0  0  0  0  0  0
   -2.5917  -28.6054   18.8313 N   0  0  0  0  0  0  0  0  0  0  0  0
   -2.1512  -29.0809   19.9964 C   0  0  0  0  0  0  0  0  0  0  0  0
   -1.0812  -28.3318   20.5148 C   0  0  0  0  0  0  0  0  0  0  0  0
   -0.8271  -27.3705   19.5572 C   0  0  0  0  0  0  0  0  0  0  0  0
    0.1454  -26.3168   19.3769 C   0  0  0  0  0  0  0  0  0  0  0  0
    2.7851  -20.0704   16.7350 S   0  0  0  0  0  0  0  0  0  0  0  0
    4.9903  -17.4831   16.1382 H   0  0  0  0  0  0  0  0  0  0  0  0
    4.0856  -17.5513   14.6341 H   0  0  0  0  0  0  0  0  0  0  0  0
    3.2296  -17.3149   16.1783 H   0  0  0  0  0  0  0  0  0  0  0  0
    5.5052  -19.9472   14.3775 H   0  0  0  0  0  0  0  0  0  0  0  0
    4.8553  -22.4203   14.9895 H   0  0  0  0  0  0  0  0  0  0  0  0
    2.8014  -22.5269   18.2134 H   0  0  0  0  0  0  0  0  0  0  0  0
    3.7576  -24.8467   17.7887 H   0  0  0  0  0  0  0  0  0  0  0  0
    4.9409  -23.5932   17.4205 H   0  0  0  0  0  0  0  0  0  0  0  0
    4.0499  -24.4034   16.1177 H   0  0  0  0  0  0  0  0  0  0  0  0
    1.8890  -24.4397   18.8114 H   0  0  0  0  0  0  0  0  0  0  0  0
   -0.8840  -25.1516   16.3584 H   0  0  0  0  0  0  0  0  0  0  0  0
   -2.5464  -26.9751   16.6832 H   0  0  0  0  0  0  0  0  0  0  0  0
   -2.6200  -29.9617   20.4128 H   0  0  0  0  0  0  0  0  0  0  0  0
   -0.5378  -28.4948   21.4340 H   0  0  0  0  0  0  0  0  0  0  0  0
    0.8957  -26.1872   20.1517 H   0  0  0  0  0  0  0  0  0  0  0  0
  1  2  1  0
  2  3  2  0
  3  4  1  0
  4  5  2  0
  5  6  1  0
  6  7  1  0
  6  8  1  0
  8  9  2  0
  8 10  1  0
 10 11  1  0
 11 12  1  0
 12 13  2  0
 13 14  1  0
 14 15  1  0
 15 16  2  0
 16 17  1  0
 17 18  2  0
 18 19  1  0
  5 20  1  0
 20  2  1  0
 19 11  2  0
 18 14  1  0
  1 21  1  0
  1 22  1  0
  1 23  1  0
  3 24  1  0
  4 25  1  0
  6 26  1  0
  7 27  1  0
  7 28  1  0
  7 29  1  0
 10 30  1  0
 12 31  1  0
 13 32  1  0
 16 33  1  0
 17 34  1  0
 19 35  1  0
M  END
>  <Energy>  (1083) 
57.143199367514001

>  <compound_id>  (1083) 
50585

>  <target_id>  (1083) 
1

>  <reference_id>  (1083) 
68

>  <inspiration_ids>  (1083) 
[76, 68]

>  <energy_score>  (1083) 
-44.70339784283942

>  <distance_score>  (1083) 
19.234689666332173

>  <path>  (1083) 
/opt/xchem-fragalysis-2/maxwin/BulkDock/SCRATCH/511021/C50585-P68/C50585-P68.minimised.mol

>  <scratch_subdir>  (1083) 
/opt/xchem-fragalysis-2/maxwin/BulkDock/SCRATCH/511021/C50585-P68

>  <fragmenstein_runtime>  (1083) 
11.709633350372314

>  <fragmenstein_outcome>  (1083) 
too moved

>  <fragmenstein_mode>  (1083) 
expansion

>  <fragmenstein_error>  (1083) 


$$$$
C50586-P76
     RDKit          3D

 37 39  0  0  0  0  0  0  0  0999 V2000
    8.0185  -18.2990   15.1238 C   0  0  0  0  0  0  0  0  0  0  0  0
    7.2979  -19.5635   15.5232 C   0  0  0  0  0  0  0  0  0  0  0  0
    7.6942  -20.4985   16.4544 C   0  0  0  0  0  0  0  0  0  0  0  0
    6.7394  -21.5712   16.6232 C   0  0  0  0  0  0  0  0  0  0  0  0
    5.5862  -21.4448   15.8566 C   0  0  0  0  0  0  0  0  0  0  0  0
    4.1469  -22.6532   15.4689 S   0  0  0  0  0  0  0  0  0  0  0  0
    3.1862  -21.8166   14.7840 O   0  0  0  0  0  0  0  0  0  0  0  0
    4.8755  -23.6875   14.7583 O   0  0  0  0  0  0  0  0  0  0  0  0
    3.2887  -23.4523   16.7060 N   0  0  0  0  0  0  0  0  0  0  0  0
    2.4412  -24.7432   16.6706 C   0  0  0  0  0  0  0  0  0  0  0  0
    2.2555  -25.5323   15.7735 O   0  0  0  0  0  0  0  0  0  0  0  0
    1.6838  -25.0941   18.0442 C   0  0  0  0  0  0  0  0  0  0  0  0
    0.6534  -26.2993   18.2143 C   0  0  0  0  0  0  0  0  0  0  0  0
   -0.1956  -26.7760   17.2115 C   0  0  0  0  0  0  0  0  0  0  0  0
   -1.1407  -27.8184   17.4556 C   0  0  0  0  0  0  0  0  0  0  0  0
   -1.3144  -28.4336   18.6951 C   0  0  0  0  0  0  0  0  0  0  0  0
   -2.2211  -29.4314   18.8617 N   0  0  0  0  0  0  0  0  0  0  0  0
   -2.3501  -29.9918   20.0838 C   0  0  0  0  0  0  0  0  0  0  0  0
   -1.6046  -29.5960   21.1743 C   0  0  0  0  0  0  0  0  0  0  0  0
   -0.6741  -28.5667   20.9960 C   0  0  0  0  0  0  0  0  0  0  0  0
   -0.5030  -27.9576   19.7378 C   0  0  0  0  0  0  0  0  0  0  0  0
    0.4494  -26.9030   19.4897 C   0  0  0  0  0  0  0  0  0  0  0  0
    5.7574  -20.0092   14.8530 S   0  0  0  0  0  0  0  0  0  0  0  0
    9.0654  -18.3356   15.4414 H   0  0  0  0  0  0  0  0  0  0  0  0
    7.5437  -17.4486   15.6103 H   0  0  0  0  0  0  0  0  0  0  0  0
    7.9986  -18.1883   14.0377 H   0  0  0  0  0  0  0  0  0  0  0  0
    8.6345  -20.4444   16.9919 H   0  0  0  0  0  0  0  0  0  0  0  0
    6.9079  -22.4280   17.2647 H   0  0  0  0  0  0  0  0  0  0  0  0
    3.1519  -22.9793   17.6114 H   0  0  0  0  0  0  0  0  0  0  0  0
    2.4877  -25.2927   18.7619 H   0  0  0  0  0  0  0  0  0  0  0  0
    1.1398  -24.1991   18.3548 H   0  0  0  0  0  0  0  0  0  0  0  0
   -0.1426  -26.3595   16.2055 H   0  0  0  0  0  0  0  0  0  0  0  0
   -1.7599  -28.1558   16.6254 H   0  0  0  0  0  0  0  0  0  0  0  0
   -3.0914  -30.7816   20.1577 H   0  0  0  0  0  0  0  0  0  0  0  0
   -1.7390  -30.0686   22.1402 H   0  0  0  0  0  0  0  0  0  0  0  0
   -0.0767  -28.2429   21.8445 H   0  0  0  0  0  0  0  0  0  0  0  0
    1.0524  -26.5539   20.3279 H   0  0  0  0  0  0  0  0  0  0  0  0
  1  2  1  0
  2  3  2  0
  3  4  1  0
  4  5  2  0
  5  6  1  0
  6  7  2  0
  6  8  2  0
  6  9  1  0
  9 10  1  0
 10 11  2  0
 10 12  1  0
 12 13  1  0
 13 14  2  0
 14 15  1  0
 15 16  2  0
 16 17  1  0
 17 18  2  0
 18 19  1  0
 19 20  2  0
 20 21  1  0
 21 22  2  0
  5 23  1  0
 23  2  1  0
 22 13  1  0
 21 16  1  0
  1 24  1  0
  1 25  1  0
  1 26  1  0
  3 27  1  0
  4 28  1  0
  9 29  1  0
 12 30  1  0
 12 31  1  0
 14 32  1  0
 15 33  1  0
 18 34  1  0
 19 35  1  0
 20 36  1  0
 22 37  1  0
M  END
>  <Energy>  (1084) 
8.7136057508808236

>  <compound_id>  (1084) 
50586

>  <target_id>  (1084) 
1

>  <reference_id>  (1084) 
76

>  <inspiration_ids>  (1084) 
[76, 68]

>  <energy_score>  (1084) 
-0.21544934867841903

>  <distance_score>  (1084) 
16.058342185267065

>  <path>  (1084) 
/opt/xchem-fragalysis-2/maxwin/BulkDock/SCRATCH/511021/C50586-P76/C50586-P76.minimised.mol

>  <scratch_subdir>  (1084) 
/opt/xchem-fragalysis-2/maxwin/BulkDock/SCRATCH/511021/C50586-P76

>  <fragmenstein_runtime>  (1084) 
8.72537636756897

>  <fragmenstein_outcome>  (1084) 
too moved

>  <fragmenstein_mode>  (1084) 
expansion

>  <fragmenstein_error>  (1084) 


$$$$
C50586-P68
     RDKit          3D

 37 39  0  0  0  0  0  0  0  0999 V2000
    8.6692   -9.1704   21.7406 C   0  0  0  0  0  0  0  0  0  0  0  0
    7.6345   -9.8681   20.9136 C   0  0  0  0  0  0  0  0  0  0  0  0
    7.1184   -9.4066   19.7460 C   0  0  0  0  0  0  0  0  0  0  0  0
    6.2765  -10.3570   19.1240 C   0  0  0  0  0  0  0  0  0  0  0  0
    6.0057  -11.5958   19.8359 C   0  0  0  0  0  0  0  0  0  0  0  0
    4.5570  -13.3088   19.6513 S   0  0  0  0  0  0  0  0  0  0  0  0
    5.7209  -13.9653   20.1427 O   0  0  0  0  0  0  0  0  0  0  0  0
    3.9352  -12.7323   18.4747 O   0  0  0  0  0  0  0  0  0  0  0  0
    3.9370  -14.5554   18.2066 N   0  0  0  0  0  0  0  0  0  0  0  0
    3.9743  -16.0473   18.1050 C   0  0  0  0  0  0  0  0  0  0  0  0
    4.4606  -16.7825   18.8432 O   0  0  0  0  0  0  0  0  0  0  0  0
    3.2887  -16.9078   16.8162 C   0  0  0  0  0  0  0  0  0  0  0  0
    2.8904  -18.6550   16.9359 C   0  0  0  0  0  0  0  0  0  0  0  0
    1.9680  -19.2014   17.8574 C   0  0  0  0  0  0  0  0  0  0  0  0
    1.6518  -20.5808   18.1089 C   0  0  0  0  0  0  0  0  0  0  0  0
    2.0969  -21.5922   17.3115 C   0  0  0  0  0  0  0  0  0  0  0  0
    1.6730  -22.8664   17.5574 N   0  0  0  0  0  0  0  0  0  0  0  0
    2.0575  -23.8216   16.6989 C   0  0  0  0  0  0  0  0  0  0  0  0
    2.8630  -23.5458   15.6113 C   0  0  0  0  0  0  0  0  0  0  0  0
    3.3032  -22.2179   15.3986 C   0  0  0  0  0  0  0  0  0  0  0  0
    2.9256  -21.1621   16.2546 C   0  0  0  0  0  0  0  0  0  0  0  0
    3.3240  -19.7083   16.0920 C   0  0  0  0  0  0  0  0  0  0  0  0
    6.8239  -11.3062   21.3709 S   0  0  0  0  0  0  0  0  0  0  0  0
    8.4882   -8.0905   21.7565 H   0  0  0  0  0  0  0  0  0  0  0  0
    8.6631   -9.5273   22.7754 H   0  0  0  0  0  0  0  0  0  0  0  0
    9.6649   -9.3470   21.3210 H   0  0  0  0  0  0  0  0  0  0  0  0
    7.3221   -8.4290   19.3628 H   0  0  0  0  0  0  0  0  0  0  0  0
    5.7669  -10.0827   18.2079 H   0  0  0  0  0  0  0  0  0  0  0  0
    3.3661  -14.1879   17.4528 H   0  0  0  0  0  0  0  0  0  0  0  0
    4.0300  -16.8878   16.0122 H   0  0  0  0  0  0  0  0  0  0  0  0
    2.4066  -16.3710   16.5352 H   0  0  0  0  0  0  0  0  0  0  0  0
    1.4551  -18.5105   18.5018 H   0  0  0  0  0  0  0  0  0  0  0  0
    1.0330  -20.8337   18.9663 H   0  0  0  0  0  0  0  0  0  0  0  0
    1.6960  -24.8220   16.9074 H   0  0  0  0  0  0  0  0  0  0  0  0
    3.1543  -24.3348   14.9273 H   0  0  0  0  0  0  0  0  0  0  0  0
    3.9299  -22.0044   14.5361 H   0  0  0  0  0  0  0  0  0  0  0  0
    3.9735  -19.4668   15.2510 H   0  0  0  0  0  0  0  0  0  0  0  0
  1  2  1  0
  2  3  2  0
  3  4  1  0
  4  5  2  0
  5  6  1  0
  6  7  2  0
  6  8  2  0
  6  9  1  0
  9 10  1  0
 10 11  2  0
 10 12  1  0
 12 13  1  0
 13 14  2  0
 14 15  1  0
 15 16  2  0
 16 17  1  0
 17 18  2  0
 18 19  1  0
 19 20  2  0
 20 21  1  0
 21 22  2  0
  5 23  1  0
 23  2  1  0
 22 13  1  0
 21 16  1  0
  1 24  1  0
  1 25  1  0
  1 26  1  0
  3 27  1  0
  4 28  1  0
  9 29  1  0
 12 30  1  0
 12 31  1  0
 14 32  1  0
 15 33  1  0
 18 34  1  0
 19 35  1  0
 20 36  1  0
 22 37  1  0
M  END
>  <Energy>  (1085) 
253.78886259117982

>  <compound_id>  (1085) 
50586

>  <target_id>  (1085) 
1

>  <reference_id>  (1085) 
68

>  <inspiration_ids>  (1085) 
[76, 68]

>  <energy_score>  (1085) 
244.8598074916295

>  <distance_score>  (1085) 
17.871780631671985

>  <path>  (1085) 
/opt/xchem-fragalysis-2/maxwin/BulkDock/SCRATCH/511021/C50586-P68/C50586-P68.minimised.mol

>  <scratch_subdir>  (1085) 
/opt/xchem-fragalysis-2/maxwin/BulkDock/SCRATCH/511021/C50586-P68

>  <fragmenstein_runtime>  (1085) 
19.667405366897583

>  <fragmenstein_outcome>  (1085) 
too moved

>  <fragmenstein_mode>  (1085) 
expansion

>  <fragmenstein_error>  (1085) 


$$$$
C50587-P76
     RDKit          3D

 34 36  0  0  0  0  0  0  0  0999 V2000
    6.2862  -10.8727   22.6264 C   0  0  0  0  0  0  0  0  0  0  0  0
    5.2686  -11.9926   22.6412 C   0  0  0  0  0  0  0  0  0  0  0  0
    4.6511  -12.6386   23.6894 C   0  0  0  0  0  0  0  0  0  0  0  0
    3.7005  -13.6949   23.3224 C   0  0  0  0  0  0  0  0  0  0  0  0
    3.4493  -13.8430   21.9412 C   0  0  0  0  0  0  0  0  0  0  0  0
    2.1680  -14.8572   20.7721 C   0  0  0  0  0  0  0  0  0  0  0  0
    0.5541  -16.1067   20.9055 C   0  0  0  0  0  0  0  0  0  0  0  0
    0.5447  -16.8420   19.9912 O   0  0  0  0  0  0  0  0  0  0  0  0
   -0.4476  -16.1558   22.1193 N   0  0  0  0  0  0  0  0  0  0  0  0
   -1.5239  -17.1356   22.4677 C   0  0  0  0  0  0  0  0  0  0  0  0
   -2.1849  -17.2408   23.6864 C   0  0  0  0  0  0  0  0  0  0  0  0
   -2.9108  -18.4426   24.0613 C   0  0  0  0  0  0  0  0  0  0  0  0
   -3.0313  -19.6016   23.2744 C   0  0  0  0  0  0  0  0  0  0  0  0
   -3.6712  -20.7304   23.7106 N   0  0  0  0  0  0  0  0  0  0  0  0
   -3.7205  -21.8132   22.8948 C   0  0  0  0  0  0  0  0  0  0  0  0
   -3.1807  -21.8204   21.6280 C   0  0  0  0  0  0  0  0  0  0  0  0
   -2.5428  -20.6517   21.1903 C   0  0  0  0  0  0  0  0  0  0  0  0
   -2.4319  -19.5096   22.0164 C   0  0  0  0  0  0  0  0  0  0  0  0
   -1.7090  -18.2963   21.6433 C   0  0  0  0  0  0  0  0  0  0  0  0
    4.7877  -12.6631   21.1655 S   0  0  0  0  0  0  0  0  0  0  0  0
    6.4899  -10.5324   23.6468 H   0  0  0  0  0  0  0  0  0  0  0  0
    7.2279  -11.2159   22.1859 H   0  0  0  0  0  0  0  0  0  0  0  0
    5.9112  -10.0202   22.0508 H   0  0  0  0  0  0  0  0  0  0  0  0
    4.8604  -12.3929   24.7247 H   0  0  0  0  0  0  0  0  0  0  0  0
    3.1610  -14.2652   24.0680 H   0  0  0  0  0  0  0  0  0  0  0  0
    2.5851  -15.1326   19.7929 H   0  0  0  0  0  0  0  0  0  0  0  0
    2.1258  -14.0965   20.1116 H   0  0  0  0  0  0  0  0  0  0  0  0
   -0.2680  -15.3591   22.7193 H   0  0  0  0  0  0  0  0  0  0  0  0
   -2.1024  -16.4503   24.4276 H   0  0  0  0  0  0  0  0  0  0  0  0
   -3.3666  -18.4684   25.0517 H   0  0  0  0  0  0  0  0  0  0  0  0
   -4.2247  -22.6831   23.3031 H   0  0  0  0  0  0  0  0  0  0  0  0
   -3.2400  -22.6968   20.9934 H   0  0  0  0  0  0  0  0  0  0  0  0
   -2.1101  -20.6414   20.1930 H   0  0  0  0  0  0  0  0  0  0  0  0
   -1.2075  -18.3199   20.6762 H   0  0  0  0  0  0  0  0  0  0  0  0
  1  2  1  0
  2  3  2  0
  3  4  1  0
  4  5  2  0
  5  6  1  0
  6  7  1  0
  7  8  2  0
  7  9  1  0
  9 10  1  0
 10 11  2  0
 11 12  1  0
 12 13  2  0
 13 14  1  0
 14 15  2  0
 15 16  1  0
 16 17  2  0
 17 18  1  0
 18 19  2  0
  5 20  1  0
 20  2  1  0
 19 10  1  0
 18 13  1  0
  1 21  1  0
  1 22  1  0
  1 23  1  0
  3 24  1  0
  4 25  1  0
  6 26  1  0
  6 27  1  0
  9 28  1  0
 11 29  1  0
 12 30  1  0
 15 31  1  0
 16 32  1  0
 17 33  1  0
 19 34  1  0
M  END
>  <Energy>  (1086) 
281.35812373837956

>  <compound_id>  (1086) 
50587

>  <target_id>  (1086) 
1

>  <reference_id>  (1086) 
76

>  <inspiration_ids>  (1086) 
[76, 68]

>  <energy_score>  (1086) 
196.6608143602465

>  <distance_score>  (1086) 
17.499071878483736

>  <path>  (1086) 
/opt/xchem-fragalysis-2/maxwin/BulkDock/SCRATCH/511021/C50587-P76/C50587-P76.minimised.mol

>  <scratch_subdir>  (1086) 
/opt/xchem-fragalysis-2/maxwin/BulkDock/SCRATCH/511021/C50587-P76

>  <fragmenstein_runtime>  (1086) 
6.847506284713745

>  <fragmenstein_outcome>  (1086) 
too moved

>  <fragmenstein_mode>  (1086) 
expansion

>  <fragmenstein_error>  (1086) 


$$$$
C50587-P68
     RDKit          3D

 34 36  0  0  0  0  0  0  0  0999 V2000
    0.1239  -11.5868   23.7676 C   0  0  0  0  0  0  0  0  0  0  0  0
   -0.7513  -12.8100   23.5205 C   0  0  0  0  0  0  0  0  0  0  0  0
   -1.8873  -12.9193   22.7411 C   0  0  0  0  0  0  0  0  0  0  0  0
   -2.4145  -14.2686   22.6631 C   0  0  0  0  0  0  0  0  0  0  0  0
   -1.7231  -15.1991   23.4218 C   0  0  0  0  0  0  0  0  0  0  0  0
   -1.8357  -16.7658   23.6020 C   0  0  0  0  0  0  0  0  0  0  0  0
   -3.0775  -17.7331   23.3939 C   0  0  0  0  0  0  0  0  0  0  0  0
   -4.1221  -17.3628   22.9274 O   0  0  0  0  0  0  0  0  0  0  0  0
   -2.6197  -19.1183   23.8093 N   0  0  0  0  0  0  0  0  0  0  0  0
   -3.2641  -20.4090   23.6796 C   0  0  0  0  0  0  0  0  0  0  0  0
   -2.5243  -21.5094   24.1671 C   0  0  0  0  0  0  0  0  0  0  0  0
   -2.9755  -22.8535   24.1098 C   0  0  0  0  0  0  0  0  0  0  0  0
   -4.1810  -23.1988   23.5383 C   0  0  0  0  0  0  0  0  0  0  0  0
   -4.5352  -24.5060   23.4806 N   0  0  0  0  0  0  0  0  0  0  0  0
   -5.6821  -24.8171   22.8503 C   0  0  0  0  0  0  0  0  0  0  0  0
   -6.5083  -23.8623   22.2869 C   0  0  0  0  0  0  0  0  0  0  0  0
   -6.1480  -22.5108   22.3917 C   0  0  0  0  0  0  0  0  0  0  0  0
   -4.9535  -22.1308   23.0233 C   0  0  0  0  0  0  0  0  0  0  0  0
   -4.5013  -20.7463   23.1205 C   0  0  0  0  0  0  0  0  0  0  0  0
   -0.3718  -14.3476   24.1986 S   0  0  0  0  0  0  0  0  0  0  0  0
   -0.2059  -11.0899   24.6859 H   0  0  0  0  0  0  0  0  0  0  0  0
    0.0327  -10.8737   22.9428 H   0  0  0  0  0  0  0  0  0  0  0  0
    1.1775  -11.8565   23.8823 H   0  0  0  0  0  0  0  0  0  0  0  0
   -2.3322  -12.0819   22.2153 H   0  0  0  0  0  0  0  0  0  0  0  0
   -3.2853  -14.5359   22.0727 H   0  0  0  0  0  0  0  0  0  0  0  0
   -1.4179  -17.0013   24.5892 H   0  0  0  0  0  0  0  0  0  0  0  0
   -1.1770  -17.1402   22.8182 H   0  0  0  0  0  0  0  0  0  0  0  0
   -1.6441  -19.0799   24.0876 H   0  0  0  0  0  0  0  0  0  0  0  0
   -1.5449  -21.3406   24.6159 H   0  0  0  0  0  0  0  0  0  0  0  0
   -2.3384  -23.6399   24.5090 H   0  0  0  0  0  0  0  0  0  0  0  0
   -5.9117  -25.8761   22.8094 H   0  0  0  0  0  0  0  0  0  0  0  0
   -7.4192  -24.1359   21.7670 H   0  0  0  0  0  0  0  0  0  0  0  0
   -6.7957  -21.7556   21.9515 H   0  0  0  0  0  0  0  0  0  0  0  0
   -5.1279  -19.9564   22.7094 H   0  0  0  0  0  0  0  0  0  0  0  0
  1  2  1  0
  2  3  2  0
  3  4  1  0
  4  5  2  0
  5  6  1  0
  6  7  1  0
  7  8  2  0
  7  9  1  0
  9 10  1  0
 10 11  2  0
 11 12  1  0
 12 13  2  0
 13 14  1  0
 14 15  2  0
 15 16  1  0
 16 17  2  0
 17 18  1  0
 18 19  2  0
  5 20  1  0
 20  2  1  0
 19 10  1  0
 18 13  1  0
  1 21  1  0
  1 22  1  0
  1 23  1  0
  3 24  1  0
  4 25  1  0
  6 26  1  0
  6 27  1  0
  9 28  1  0
 11 29  1  0
 12 30  1  0
 15 31  1  0
 16 32  1  0
 17 33  1  0
 19 34  1  0
M  END
>  <Energy>  (1087) 
73.143543564326748

>  <compound_id>  (1087) 
50587

>  <target_id>  (1087) 
1

>  <reference_id>  (1087) 
68

>  <inspiration_ids>  (1087) 
[76, 68]

>  <energy_score>  (1087) 
-11.553765813798009

>  <distance_score>  (1087) 
17.237344554160607

>  <path>  (1087) 
/opt/xchem-fragalysis-2/maxwin/BulkDock/SCRATCH/511021/C50587-P68/C50587-P68.minimised.mol

>  <scratch_subdir>  (1087) 
/opt/xchem-fragalysis-2/maxwin/BulkDock/SCRATCH/511021/C50587-P68

>  <fragmenstein_runtime>  (1087) 
15.568373918533325

>  <fragmenstein_outcome>  (1087) 
too moved

>  <fragmenstein_mode>  (1087) 
expansion

>  <fragmenstein_error>  (1087) 


$$$$
C50588-P76
     RDKit          3D

 32 34  0  0  0  0  0  0  0  0999 V2000
    6.0823  -10.1505   11.9375 C   0  0  0  0  0  0  0  0  0  0  0  0
    5.1844  -10.2788   13.1159 C   0  0  0  0  0  0  0  0  0  0  0  0
    4.2985   -9.3957   13.5795 C   0  0  0  0  0  0  0  0  0  0  0  0
    3.6543   -9.9017   14.7635 C   0  0  0  0  0  0  0  0  0  0  0  0
    3.5784  -11.3781   15.4280 C   0  0  0  0  0  0  0  0  0  0  0  0
    2.0135  -12.5921   15.5636 C   0  0  0  0  0  0  0  0  0  0  0  0
    1.3923  -12.7725   14.4412 O   0  0  0  0  0  0  0  0  0  0  0  0
    1.1202  -13.7800   16.9495 C   0  0  0  0  0  0  0  0  0  0  0  0
   -0.5463  -13.4322   17.6268 O   0  0  0  0  0  0  0  0  0  0  0  0
   -1.9656  -13.9176   17.7505 C   0  0  0  0  0  0  0  0  0  0  0  0
   -2.8221  -13.0394   17.5754 O   0  0  0  0  0  0  0  0  0  0  0  0
   -2.6677  -15.4071   18.1580 C   0  0  0  0  0  0  0  0  0  0  0  0
   -3.6956  -15.9210   17.3150 C   0  0  0  0  0  0  0  0  0  0  0  0
   -4.3337  -17.2173   17.4672 C   0  0  0  0  0  0  0  0  0  0  0  0
   -3.9554  -18.0694   18.5157 C   0  0  0  0  0  0  0  0  0  0  0  0
   -4.3244  -19.3557   18.8701 N   0  0  0  0  0  0  0  0  0  0  0  0
   -3.6050  -19.5871   19.9472 C   0  0  0  0  0  0  0  0  0  0  0  0
   -2.8054  -18.5471   20.3454 O   0  0  0  0  0  0  0  0  0  0  0  0
   -3.0264  -17.5578   19.4063 C   0  0  0  0  0  0  0  0  0  0  0  0
   -2.4281  -16.2480   19.2998 C   0  0  0  0  0  0  0  0  0  0  0  0
    5.1700  -11.6742   14.0319 S   0  0  0  0  0  0  0  0  0  0  0  0
    6.4658   -9.1285   11.8532 H   0  0  0  0  0  0  0  0  0  0  0  0
    6.9381  -10.8304   11.9943 H   0  0  0  0  0  0  0  0  0  0  0  0
    5.5307  -10.3799   11.0194 H   0  0  0  0  0  0  0  0  0  0  0  0
    4.1759   -8.3892   13.1973 H   0  0  0  0  0  0  0  0  0  0  0  0
    3.1932   -9.0238   15.2135 H   0  0  0  0  0  0  0  0  0  0  0  0
    0.9332  -14.6697   16.4295 H   0  0  0  0  0  0  0  0  0  0  0  0
    1.7012  -14.0551   17.8453 H   0  0  0  0  0  0  0  0  0  0  0  0
   -4.0002  -15.3136   16.4592 H   0  0  0  0  0  0  0  0  0  0  0  0
   -5.0789  -17.5395   16.7457 H   0  0  0  0  0  0  0  0  0  0  0  0
   -3.5700  -20.4807   20.5541 H   0  0  0  0  0  0  0  0  0  0  0  0
   -1.7330  -15.9550   20.0726 H   0  0  0  0  0  0  0  0  0  0  0  0
  1  2  1  0
  2  3  2  0
  3  4  1  0
  4  5  2  0
  5  6  1  0
  6  7  2  0
  6  8  1  0
  8  9  1  0
  9 10  1  0
 10 11  2  0
 10 12  1  0
 12 13  2  0
 13 14  1  0
 14 15  2  0
 15 16  1  0
 16 17  2  0
 17 18  1  0
 18 19  1  0
 19 20  2  0
  5 21  1  0
 21  2  1  0
 20 12  1  0
 19 15  1  0
  1 22  1  0
  1 23  1  0
  1 24  1  0
  3 25  1  0
  4 26  1  0
  8 27  1  0
  8 28  1  0
 13 29  1  0
 14 30  1  0
 17 31  1  0
 20 32  1  0
M  END
>  <Energy>  (1088) 
442.8625531784366

>  <compound_id>  (1088) 
50588

>  <target_id>  (1088) 
1

>  <reference_id>  (1088) 
76

>  <inspiration_ids>  (1088) 
[76, 68]

>  <energy_score>  (1088) 
352.1294283818029

>  <distance_score>  (1088) 
18.301108175376733

>  <path>  (1088) 
/opt/xchem-fragalysis-2/maxwin/BulkDock/SCRATCH/511021/C50588-P76/C50588-P76.minimised.mol

>  <scratch_subdir>  (1088) 
/opt/xchem-fragalysis-2/maxwin/BulkDock/SCRATCH/511021/C50588-P76

>  <fragmenstein_runtime>  (1088) 
4.584756135940552

>  <fragmenstein_outcome>  (1088) 
too moved

>  <fragmenstein_mode>  (1088) 
expansion

>  <fragmenstein_error>  (1088) 


$$$$
C50588-P68
     RDKit          3D

 32 34  0  0  0  0  0  0  0  0999 V2000
    7.1523  -10.4300   21.9127 C   0  0  0  0  0  0  0  0  0  0  0  0
    5.9233  -11.1456   21.5738 C   0  0  0  0  0  0  0  0  0  0  0  0
    4.7383  -11.2339   22.2657 C   0  0  0  0  0  0  0  0  0  0  0  0
    3.9950  -12.5390   21.7346 C   0  0  0  0  0  0  0  0  0  0  0  0
    4.4364  -13.1140   20.5055 C   0  0  0  0  0  0  0  0  0  0  0  0
    3.8289  -14.0765   19.3320 C   0  0  0  0  0  0  0  0  0  0  0  0
    4.2539  -14.0108   18.1892 O   0  0  0  0  0  0  0  0  0  0  0  0
    2.4792  -15.3812   19.3441 C   0  0  0  0  0  0  0  0  0  0  0  0
    1.3217  -16.3472   20.0463 O   0  0  0  0  0  0  0  0  0  0  0  0
    0.4937  -17.3882   19.6203 C   0  0  0  0  0  0  0  0  0  0  0  0
    0.3991  -17.5586   18.4215 O   0  0  0  0  0  0  0  0  0  0  0  0
   -0.2973  -18.5389   20.4244 C   0  0  0  0  0  0  0  0  0  0  0  0
   -0.6903  -18.5419   21.7720 C   0  0  0  0  0  0  0  0  0  0  0  0
   -1.3370  -19.6734   22.4083 C   0  0  0  0  0  0  0  0  0  0  0  0
   -1.6006  -20.8580   21.6894 C   0  0  0  0  0  0  0  0  0  0  0  0
   -2.1634  -22.0728   22.0401 N   0  0  0  0  0  0  0  0  0  0  0  0
   -2.1102  -22.7644   20.9201 C   0  0  0  0  0  0  0  0  0  0  0  0
   -1.5702  -22.1020   19.8504 O   0  0  0  0  0  0  0  0  0  0  0  0
   -1.2344  -20.8638   20.3546 C   0  0  0  0  0  0  0  0  0  0  0  0
   -0.6151  -19.7603   19.7034 C   0  0  0  0  0  0  0  0  0  0  0  0
    5.9541  -12.2855   20.3212 S   0  0  0  0  0  0  0  0  0  0  0  0
    7.6108  -10.0235   21.0079 H   0  0  0  0  0  0  0  0  0  0  0  0
    6.9185   -9.6512   22.6422 H   0  0  0  0  0  0  0  0  0  0  0  0
    7.8784  -11.1036   22.3816 H   0  0  0  0  0  0  0  0  0  0  0  0
    4.4599  -10.7231   23.1799 H   0  0  0  0  0  0  0  0  0  0  0  0
    3.1966  -12.8870   22.3622 H   0  0  0  0  0  0  0  0  0  0  0  0
    2.0934  -15.2746   18.3248 H   0  0  0  0  0  0  0  0  0  0  0  0
    2.1816  -14.7183   20.0977 H   0  0  0  0  0  0  0  0  0  0  0  0
   -0.4870  -17.6605   22.3780 H   0  0  0  0  0  0  0  0  0  0  0  0
   -1.6043  -19.6172   23.4597 H   0  0  0  0  0  0  0  0  0  0  0  0
   -2.4395  -23.7781   20.7409 H   0  0  0  0  0  0  0  0  0  0  0  0
   -0.3410  -19.8602   18.6550 H   0  0  0  0  0  0  0  0  0  0  0  0
  1  2  1  0
  2  3  2  0
  3  4  1  0
  4  5  2  0
  5  6  1  0
  6  7  2  0
  6  8  1  0
  8  9  1  0
  9 10  1  0
 10 11  2  0
 10 12  1  0
 12 13  2  0
 13 14  1  0
 14 15  2  0
 15 16  1  0
 16 17  2  0
 17 18  1  0
 18 19  1  0
 19 20  2  0
  5 21  1  0
 21  2  1  0
 20 12  1  0
 19 15  1  0
  1 22  1  0
  1 23  1  0
  1 24  1  0
  3 25  1  0
  4 26  1  0
  8 27  1  0
  8 28  1  0
 13 29  1  0
 14 30  1  0
 17 31  1  0
 20 32  1  0
M  END
>  <Energy>  (1089) 
236.58967858141932

>  <compound_id>  (1089) 
50588

>  <target_id>  (1089) 
1

>  <reference_id>  (1089) 
68

>  <inspiration_ids>  (1089) 
[76, 68]

>  <energy_score>  (1089) 
145.85655378479538

>  <distance_score>  (1089) 
17.21845558860881

>  <path>  (1089) 
/opt/xchem-fragalysis-2/maxwin/BulkDock/SCRATCH/511021/C50588-P68/C50588-P68.minimised.mol

>  <scratch_subdir>  (1089) 
/opt/xchem-fragalysis-2/maxwin/BulkDock/SCRATCH/511021/C50588-P68

>  <fragmenstein_runtime>  (1089) 
11.785138845443726

>  <fragmenstein_outcome>  (1089) 
too moved

>  <fragmenstein_mode>  (1089) 
expansion

>  <fragmenstein_error>  (1089) 


$$$$
C62274-P107
     RDKit          3D

 41 44  0  0  0  0  0  0  0  0999 V2000
  -11.5162  -24.1114   26.9880 C   0  0  0  0  0  0  0  0  0  0  0  0
  -11.5992  -24.0327   28.4860 C   0  0  0  0  0  0  0  0  0  0  0  0
  -11.0174  -25.1841   29.2556 C   0  0  0  0  0  0  0  0  0  0  0  0
  -11.1836  -25.1306   30.5850 C   0  0  0  0  0  0  0  0  0  0  0  0
  -11.8565  -24.0506   31.1348 N   0  0  0  0  0  0  0  0  0  0  0  0
  -12.2112  -23.7939   32.4305 C   0  0  0  0  0  0  0  0  0  0  0  0
  -12.9773  -22.6465   32.3728 C   0  0  0  0  0  0  0  0  0  0  0  0
  -13.7744  -22.0086   33.4430 C   0  0  0  0  0  0  0  0  0  0  0  0
  -14.9712  -21.4004   32.9320 N   0  0  0  0  0  0  0  0  0  0  0  0
  -15.9770  -20.4624   33.6061 C   0  0  0  0  0  0  0  0  0  0  0  0
  -15.9592  -19.9684   34.6600 O   0  0  0  0  0  0  0  0  0  0  0  0
  -17.0965  -20.2024   32.6942 C   0  0  0  0  0  0  0  0  0  0  0  0
  -17.0245  -20.2852   31.3711 N   0  0  0  0  0  0  0  0  0  0  0  0
  -18.2898  -20.0142   30.9111 C   0  0  0  0  0  0  0  0  0  0  0  0
  -19.1304  -19.6782   31.9443 C   0  0  0  0  0  0  0  0  0  0  0  0
  -18.3620  -19.8147   33.0732 N   0  0  0  0  0  0  0  0  0  0  0  0
  -18.8381  -19.5621   34.4220 C   0  0  0  0  0  0  0  0  0  0  0  0
  -20.3642  -19.4731   34.4997 C   0  0  0  0  0  0  0  0  0  0  0  0
  -20.9308  -18.6594   33.3353 C   0  0  0  0  0  0  0  0  0  0  0  0
  -20.5678  -19.3046   31.9957 C   0  0  0  0  0  0  0  0  0  0  0  0
  -12.9678  -22.1285   31.1015 N   0  0  0  0  0  0  0  0  0  0  0  0
  -12.3377  -23.0046   30.3564 C   0  0  0  0  0  0  0  0  0  0  0  0
  -12.1902  -23.0000   29.0040 N   0  0  0  0  0  0  0  0  0  0  0  0
  -11.8080  -23.1603   26.5369 H   0  0  0  0  0  0  0  0  0  0  0  0
  -10.4960  -24.3559   26.6859 H   0  0  0  0  0  0  0  0  0  0  0  0
  -12.1939  -24.8918   26.6300 H   0  0  0  0  0  0  0  0  0  0  0  0
  -10.5116  -25.9875   28.7391 H   0  0  0  0  0  0  0  0  0  0  0  0
  -10.8283  -25.8959   31.2639 H   0  0  0  0  0  0  0  0  0  0  0  0
  -11.9901  -24.4722   33.2420 H   0  0  0  0  0  0  0  0  0  0  0  0
  -14.0968  -22.7562   34.1723 H   0  0  0  0  0  0  0  0  0  0  0  0
  -13.1940  -21.2335   33.9506 H   0  0  0  0  0  0  0  0  0  0  0  0
  -15.2630  -21.5770   31.9681 H   0  0  0  0  0  0  0  0  0  0  0  0
  -18.5333  -20.0770   29.8592 H   0  0  0  0  0  0  0  0  0  0  0  0
  -18.4829  -20.3691   35.0707 H   0  0  0  0  0  0  0  0  0  0  0  0
  -18.3865  -18.6166   34.7418 H   0  0  0  0  0  0  0  0  0  0  0  0
  -20.6590  -19.0258   35.4553 H   0  0  0  0  0  0  0  0  0  0  0  0
  -20.7916  -20.4836   34.4731 H   0  0  0  0  0  0  0  0  0  0  0  0
  -20.5302  -17.6390   33.3770 H   0  0  0  0  0  0  0  0  0  0  0  0
  -22.0201  -18.5815   33.4240 H   0  0  0  0  0  0  0  0  0  0  0  0
  -21.1725  -20.2078   31.8489 H   0  0  0  0  0  0  0  0  0  0  0  0
  -20.8100  -18.6150   31.1793 H   0  0  0  0  0  0  0  0  0  0  0  0
  1  2  1  0
  2  3  1  0
  3  4  2  0
  4  5  1  0
  5  6  1  0
  6  7  2  0
  7  8  1  0
  8  9  1  0
  9 10  1  0
 10 11  2  0
 10 12  1  0
 12 13  2  0
 13 14  1  0
 14 15  2  0
 15 16  1  0
 16 17  1  0
 17 18  1  0
 18 19  1  0
 19 20  1  0
  7 21  1  0
 21 22  2  0
 22 23  1  0
 23  2  2  0
 22  5  1  0
 16 12  1  0
 20 15  1  0
  1 24  1  0
  1 25  1  0
  1 26  1  0
  3 27  1  0
  4 28  1  0
  6 29  1  0
  8 30  1  0
  8 31  1  0
  9 32  1  0
 14 33  1  0
 17 34  1  0
 17 35  1  0
 18 36  1  0
 18 37  1  0
 19 38  1  0
 19 39  1  0
 20 40  1  0
 20 41  1  0
M  END
>  <Energy>  (1090) 
43.896536873721054

>  <compound_id>  (1090) 
62274

>  <target_id>  (1090) 
1

>  <reference_id>  (1090) 
107

>  <inspiration_ids>  (1090) 
[107, 35]

>  <energy_score>  (1090) 
-17.62402061420198

>  <distance_score>  (1090) 
2.4545523890071204

>  <path>  (1090) 
/opt/xchem-fragalysis-2/maxwin/BulkDock/SCRATCH/511021/C62274-P107/C62274-P107.minimised.mol

>  <scratch_subdir>  (1090) 
/opt/xchem-fragalysis-2/maxwin/BulkDock/SCRATCH/511021/C62274-P107

>  <fragmenstein_runtime>  (1090) 
11.072538137435913

>  <fragmenstein_outcome>  (1090) 
too moved

>  <fragmenstein_mode>  (1090) 
expansion

>  <fragmenstein_error>  (1090) 


$$$$
C62274-P35
     RDKit          3D

 41 44  0  0  0  0  0  0  0  0999 V2000
  -11.8607  -23.6023   27.4811 C   0  0  0  0  0  0  0  0  0  0  0  0
  -11.8360  -23.5589   28.9866 C   0  0  0  0  0  0  0  0  0  0  0  0
  -11.6897  -24.8862   29.6694 C   0  0  0  0  0  0  0  0  0  0  0  0
  -11.5257  -24.8316   30.9963 C   0  0  0  0  0  0  0  0  0  0  0  0
  -11.5004  -23.5968   31.6254 N   0  0  0  0  0  0  0  0  0  0  0  0
  -11.1190  -23.2818   32.9014 C   0  0  0  0  0  0  0  0  0  0  0  0
  -10.9617  -21.9074   32.9243 C   0  0  0  0  0  0  0  0  0  0  0  0
  -10.0779  -21.1515   33.8707 C   0  0  0  0  0  0  0  0  0  0  0  0
  -10.5739  -20.0492   34.6445 N   0  0  0  0  0  0  0  0  0  0  0  0
  -11.9979  -19.5184   34.8207 C   0  0  0  0  0  0  0  0  0  0  0  0
  -12.9917  -19.8394   34.3078 O   0  0  0  0  0  0  0  0  0  0  0  0
  -11.9768  -18.5119   35.9021 C   0  0  0  0  0  0  0  0  0  0  0  0
  -10.9388  -18.3429   36.7152 N   0  0  0  0  0  0  0  0  0  0  0  0
  -11.4320  -17.7349   37.8417 C   0  0  0  0  0  0  0  0  0  0  0  0
  -12.7820  -17.4974   37.7094 C   0  0  0  0  0  0  0  0  0  0  0  0
  -13.0492  -17.7908   36.3836 N   0  0  0  0  0  0  0  0  0  0  0  0
  -14.3391  -17.6090   35.7449 C   0  0  0  0  0  0  0  0  0  0  0  0
  -15.3118  -16.7495   36.5563 C   0  0  0  0  0  0  0  0  0  0  0  0
  -15.2498  -16.9887   38.0710 C   0  0  0  0  0  0  0  0  0  0  0  0
  -13.8364  -17.0656   38.6845 C   0  0  0  0  0  0  0  0  0  0  0  0
  -11.4008  -21.3845   31.7227 N   0  0  0  0  0  0  0  0  0  0  0  0
  -11.6941  -22.4052   30.9386 C   0  0  0  0  0  0  0  0  0  0  0  0
  -11.9177  -22.4052   29.5868 N   0  0  0  0  0  0  0  0  0  0  0  0
  -11.7326  -22.5985   27.0741 H   0  0  0  0  0  0  0  0  0  0  0  0
  -11.0382  -24.2252   27.1171 H   0  0  0  0  0  0  0  0  0  0  0  0
  -12.8034  -24.0295   27.1354 H   0  0  0  0  0  0  0  0  0  0  0  0
  -11.6961  -25.8012   29.0955 H   0  0  0  0  0  0  0  0  0  0  0  0
  -11.3689  -25.7054   31.6144 H   0  0  0  0  0  0  0  0  0  0  0  0
  -10.8064  -24.0441   33.5967 H   0  0  0  0  0  0  0  0  0  0  0  0
   -9.6746  -21.8557   34.6073 H   0  0  0  0  0  0  0  0  0  0  0  0
   -9.2173  -20.7683   33.3184 H   0  0  0  0  0  0  0  0  0  0  0  0
   -9.9304  -19.4818   35.1918 H   0  0  0  0  0  0  0  0  0  0  0  0
  -10.8033  -17.5700   38.7082 H   0  0  0  0  0  0  0  0  0  0  0  0
  -14.1537  -17.1441   34.7709 H   0  0  0  0  0  0  0  0  0  0  0  0
  -14.7829  -18.5926   35.5749 H   0  0  0  0  0  0  0  0  0  0  0  0
  -16.3334  -16.9347   36.2016 H   0  0  0  0  0  0  0  0  0  0  0  0
  -15.1299  -15.6937   36.3383 H   0  0  0  0  0  0  0  0  0  0  0  0
  -15.7840  -17.9221   38.2887 H   0  0  0  0  0  0  0  0  0  0  0  0
  -15.8239  -16.2104   38.5886 H   0  0  0  0  0  0  0  0  0  0  0  0
  -13.5655  -16.1135   39.1490 H   0  0  0  0  0  0  0  0  0  0  0  0
  -13.8585  -17.7759   39.5219 H   0  0  0  0  0  0  0  0  0  0  0  0
  1  2  1  0
  2  3  1  0
  3  4  2  0
  4  5  1  0
  5  6  1  0
  6  7  2  0
  7  8  1  0
  8  9  1  0
  9 10  1  0
 10 11  2  0
 10 12  1  0
 12 13  2  0
 13 14  1  0
 14 15  2  0
 15 16  1  0
 16 17  1  0
 17 18  1  0
 18 19  1  0
 19 20  1  0
  7 21  1  0
 21 22  2  0
 22 23  1  0
 23  2  2  0
 22  5  1  0
 16 12  1  0
 20 15  1  0
  1 24  1  0
  1 25  1  0
  1 26  1  0
  3 27  1  0
  4 28  1  0
  6 29  1  0
  8 30  1  0
  8 31  1  0
  9 32  1  0
 14 33  1  0
 17 34  1  0
 17 35  1  0
 18 36  1  0
 18 37  1  0
 19 38  1  0
 19 39  1  0
 20 40  1  0
 20 41  1  0
M  END
>  <Energy>  (1091) 
66.214155030926989

>  <compound_id>  (1091) 
62274

>  <target_id>  (1091) 
1

>  <reference_id>  (1091) 
35

>  <inspiration_ids>  (1091) 
[107, 35]

>  <energy_score>  (1091) 
4.693597543002568

>  <distance_score>  (1091) 
1.1658371293789476

>  <path>  (1091) 
/opt/xchem-fragalysis-2/maxwin/BulkDock/SCRATCH/511021/C62274-P35/C62274-P35.minimised.mol

>  <scratch_subdir>  (1091) 
/opt/xchem-fragalysis-2/maxwin/BulkDock/SCRATCH/511021/C62274-P35

>  <fragmenstein_runtime>  (1091) 
4.633594036102295

>  <fragmenstein_outcome>  (1091) 
too moved

>  <fragmenstein_mode>  (1091) 
expansion

>  <fragmenstein_error>  (1091) 


$$$$
C62275-P107
     RDKit          3D

 38 41  0  0  0  0  0  0  0  0999 V2000
  -15.5550  -21.9344   31.8285 O   0  0  0  0  0  0  0  0  0  0  0  0
  -14.4747  -22.0709   32.2543 C   0  0  0  0  0  0  0  0  0  0  0  0
  -14.1369  -22.3038   33.7119 C   0  0  0  0  0  0  0  0  0  0  0  0
  -13.1530  -23.4765   33.6930 C   0  0  0  0  0  0  0  0  0  0  0  0
  -11.8034  -23.3510   33.8676 C   0  0  0  0  0  0  0  0  0  0  0  0
  -11.1777  -24.3387   33.1748 N   0  0  0  0  0  0  0  0  0  0  0  0
  -12.1399  -24.9403   32.4414 C   0  0  0  0  0  0  0  0  0  0  0  0
  -13.3208  -24.5490   32.8733 N   0  0  0  0  0  0  0  0  0  0  0  0
  -11.7801  -25.7340   31.2395 C   0  0  0  0  0  0  0  0  0  0  0  0
  -10.4694  -26.4536   31.3799 C   0  0  0  0  0  0  0  0  0  0  0  0
   -9.4179  -25.4239   31.7489 C   0  0  0  0  0  0  0  0  0  0  0  0
   -9.7746  -24.6399   33.0088 C   0  0  0  0  0  0  0  0  0  0  0  0
  -13.1003  -22.1674   31.5165 N   0  0  0  0  0  0  0  0  0  0  0  0
  -12.8209  -22.2082   30.2258 C   0  0  0  0  0  0  0  0  0  0  0  0
  -13.4365  -23.2241   29.5561 C   0  0  0  0  0  0  0  0  0  0  0  0
  -12.5397  -23.6708   28.6752 N   0  0  0  0  0  0  0  0  0  0  0  0
  -12.5885  -24.8244   27.9167 C   0  0  0  0  0  0  0  0  0  0  0  0
  -11.4929  -25.2108   27.2682 C   0  0  0  0  0  0  0  0  0  0  0  0
  -10.3744  -24.2681   27.4383 C   0  0  0  0  0  0  0  0  0  0  0  0
  -10.3188  -23.1787   28.1255 N   0  0  0  0  0  0  0  0  0  0  0  0
  -11.4319  -22.8609   28.8078 C   0  0  0  0  0  0  0  0  0  0  0  0
  -11.5840  -21.9639   29.7584 N   0  0  0  0  0  0  0  0  0  0  0  0
  -13.7011  -21.3830   34.1072 H   0  0  0  0  0  0  0  0  0  0  0  0
  -15.0378  -22.5820   34.2645 H   0  0  0  0  0  0  0  0  0  0  0  0
  -11.3520  -22.4682   34.2315 H   0  0  0  0  0  0  0  0  0  0  0  0
  -12.5211  -26.4490   30.9344 H   0  0  0  0  0  0  0  0  0  0  0  0
  -11.6582  -25.0448   30.4187 H   0  0  0  0  0  0  0  0  0  0  0  0
  -10.1985  -26.9436   30.4382 H   0  0  0  0  0  0  0  0  0  0  0  0
  -10.6036  -27.2344   32.1253 H   0  0  0  0  0  0  0  0  0  0  0  0
   -9.3408  -24.7433   30.9031 H   0  0  0  0  0  0  0  0  0  0  0  0
   -8.4305  -25.8712   31.8635 H   0  0  0  0  0  0  0  0  0  0  0  0
   -9.4925  -25.2275   33.8880 H   0  0  0  0  0  0  0  0  0  0  0  0
   -9.2284  -23.6960   33.0099 H   0  0  0  0  0  0  0  0  0  0  0  0
  -12.3629  -22.2002   32.1867 H   0  0  0  0  0  0  0  0  0  0  0  0
  -14.3057  -23.7881   29.7925 H   0  0  0  0  0  0  0  0  0  0  0  0
  -13.5110  -25.3852   27.9087 H   0  0  0  0  0  0  0  0  0  0  0  0
  -11.3955  -26.0959   26.6611 H   0  0  0  0  0  0  0  0  0  0  0  0
   -9.4836  -24.5262   26.8911 H   0  0  0  0  0  0  0  0  0  0  0  0
  1  2  2  0
  2  3  1  0
  3  4  1  0
  4  5  2  0
  5  6  1  0
  6  7  1  0
  7  8  2  0
  7  9  1  0
  9 10  1  0
 10 11  1  0
 11 12  1  0
  2 13  1  0
 13 14  1  0
 14 15  2  0
 15 16  1  0
 16 17  1  0
 17 18  2  0
 18 19  1  0
 19 20  2  0
 20 21  1  0
 21 22  2  0
  8  4  1  0
 22 14  1  0
 12  6  1  0
 21 16  1  0
  3 23  1  0
  3 24  1  0
  5 25  1  0
  9 26  1  0
  9 27  1  0
 10 28  1  0
 10 29  1  0
 11 30  1  0
 11 31  1  0
 12 32  1  0
 12 33  1  0
 13 34  1  0
 15 35  1  0
 17 36  1  0
 18 37  1  0
 19 38  1  0
M  END
>  <Energy>  (1092) 
77.243089369385928

>  <compound_id>  (1092) 
62275

>  <target_id>  (1092) 
1

>  <reference_id>  (1092) 
107

>  <inspiration_ids>  (1092) 
[107, 35]

>  <energy_score>  (1092) 
39.954139741356414

>  <distance_score>  (1092) 
3.4952847213159473

>  <path>  (1092) 
/opt/xchem-fragalysis-2/maxwin/BulkDock/SCRATCH/511021/C62275-P107/C62275-P107.minimised.mol

>  <scratch_subdir>  (1092) 
/opt/xchem-fragalysis-2/maxwin/BulkDock/SCRATCH/511021/C62275-P107

>  <fragmenstein_runtime>  (1092) 
11.647481918334961

>  <fragmenstein_outcome>  (1092) 
too moved

>  <fragmenstein_mode>  (1092) 
expansion

>  <fragmenstein_error>  (1092) 


$$$$
C62275-P35
     RDKit          3D

 38 41  0  0  0  0  0  0  0  0999 V2000
  -16.6808  -23.3350   33.2834 O   0  0  0  0  0  0  0  0  0  0  0  0
  -16.2368  -22.2565   33.1590 C   0  0  0  0  0  0  0  0  0  0  0  0
  -17.0717  -21.0108   33.4695 C   0  0  0  0  0  0  0  0  0  0  0  0
  -16.4916  -19.9160   34.3033 C   0  0  0  0  0  0  0  0  0  0  0  0
  -17.1031  -19.2465   35.3480 C   0  0  0  0  0  0  0  0  0  0  0  0
  -16.2242  -18.2771   35.7246 N   0  0  0  0  0  0  0  0  0  0  0  0
  -15.1094  -18.3788   34.9360 C   0  0  0  0  0  0  0  0  0  0  0  0
  -15.2824  -19.3104   34.0139 N   0  0  0  0  0  0  0  0  0  0  0  0
  -13.9357  -17.4618   35.0939 C   0  0  0  0  0  0  0  0  0  0  0  0
  -14.0057  -16.6297   36.3774 C   0  0  0  0  0  0  0  0  0  0  0  0
  -15.4264  -16.1319   36.6481 C   0  0  0  0  0  0  0  0  0  0  0  0
  -16.3968  -17.3049   36.7835 C   0  0  0  0  0  0  0  0  0  0  0  0
  -14.8631  -21.7905   32.5972 N   0  0  0  0  0  0  0  0  0  0  0  0
  -13.8576  -22.5015   32.0225 C   0  0  0  0  0  0  0  0  0  0  0  0
  -13.7846  -23.8543   31.8365 C   0  0  0  0  0  0  0  0  0  0  0  0
  -12.7864  -24.0383   30.9230 N   0  0  0  0  0  0  0  0  0  0  0  0
  -12.3312  -25.1957   30.3092 C   0  0  0  0  0  0  0  0  0  0  0  0
  -11.5072  -25.0962   29.2575 C   0  0  0  0  0  0  0  0  0  0  0  0
  -11.2058  -23.6997   28.8335 C   0  0  0  0  0  0  0  0  0  0  0  0
  -11.5677  -22.6090   29.4373 N   0  0  0  0  0  0  0  0  0  0  0  0
  -12.3432  -22.7766   30.5482 C   0  0  0  0  0  0  0  0  0  0  0  0
  -12.8580  -21.8654   31.3452 N   0  0  0  0  0  0  0  0  0  0  0  0
  -17.9943  -21.3628   33.9502 H   0  0  0  0  0  0  0  0  0  0  0  0
  -17.3719  -20.5857   32.5030 H   0  0  0  0  0  0  0  0  0  0  0  0
  -18.0629  -19.3838   35.8264 H   0  0  0  0  0  0  0  0  0  0  0  0
  -13.0068  -18.0424   35.0779 H   0  0  0  0  0  0  0  0  0  0  0  0
  -13.9049  -16.7794   34.2378 H   0  0  0  0  0  0  0  0  0  0  0  0
  -13.6647  -17.2291   37.2289 H   0  0  0  0  0  0  0  0  0  0  0  0
  -13.3175  -15.7801   36.3004 H   0  0  0  0  0  0  0  0  0  0  0  0
  -15.4480  -15.5269   37.5611 H   0  0  0  0  0  0  0  0  0  0  0  0
  -15.7444  -15.4825   35.8225 H   0  0  0  0  0  0  0  0  0  0  0  0
  -17.4325  -16.9503   36.7540 H   0  0  0  0  0  0  0  0  0  0  0  0
  -16.2351  -17.8356   37.7281 H   0  0  0  0  0  0  0  0  0  0  0  0
  -14.7733  -20.7882   32.7113 H   0  0  0  0  0  0  0  0  0  0  0  0
  -14.4227  -24.6561   32.1727 H   0  0  0  0  0  0  0  0  0  0  0  0
  -12.6899  -26.1361   30.7061 H   0  0  0  0  0  0  0  0  0  0  0  0
  -11.1025  -25.9322   28.7072 H   0  0  0  0  0  0  0  0  0  0  0  0
  -10.5972  -23.6155   27.9187 H   0  0  0  0  0  0  0  0  0  0  0  0
  1  2  2  0
  2  3  1  0
  3  4  1  0
  4  5  2  0
  5  6  1  0
  6  7  1  0
  7  8  2  0
  7  9  1  0
  9 10  1  0
 10 11  1  0
 11 12  1  0
  2 13  1  0
 13 14  1  0
 14 15  2  0
 15 16  1  0
 16 17  1  0
 17 18  2  0
 18 19  1  0
 19 20  2  0
 20 21  1  0
 21 22  2  0
  8  4  1  0
 22 14  1  0
 12  6  1  0
 21 16  1  0
  3 23  1  0
  3 24  1  0
  5 25  1  0
  9 26  1  0
  9 27  1  0
 10 28  1  0
 10 29  1  0
 11 30  1  0
 11 31  1  0
 12 32  1  0
 12 33  1  0
 13 34  1  0
 15 35  1  0
 17 36  1  0
 18 37  1  0
 19 38  1  0
M  END
>  <Energy>  (1093) 
13.593548843980301

>  <compound_id>  (1093) 
62275

>  <target_id>  (1093) 
1

>  <reference_id>  (1093) 
35

>  <inspiration_ids>  (1093) 
[107, 35]

>  <energy_score>  (1093) 
-23.695400784054925

>  <distance_score>  (1093) 
3.2644963838985106

>  <path>  (1093) 
/opt/xchem-fragalysis-2/maxwin/BulkDock/SCRATCH/511021/C62275-P35/C62275-P35.minimised.mol

>  <scratch_subdir>  (1093) 
/opt/xchem-fragalysis-2/maxwin/BulkDock/SCRATCH/511021/C62275-P35

>  <fragmenstein_runtime>  (1093) 
12.524596929550171

>  <fragmenstein_outcome>  (1093) 
too moved

>  <fragmenstein_mode>  (1093) 
expansion

>  <fragmenstein_error>  (1093) 


$$$$
C62276-P107
     RDKit          3D

 35 38  0  0  0  0  0  0  0  0999 V2000
  -14.3542  -21.2096   34.1009 O   0  0  0  0  0  0  0  0  0  0  0  0
  -13.2513  -20.9369   33.8221 C   0  0  0  0  0  0  0  0  0  0  0  0
  -12.3448  -19.7727   34.3173 N   0  0  0  0  0  0  0  0  0  0  0  0
  -12.5683  -18.8142   35.2776 C   0  0  0  0  0  0  0  0  0  0  0  0
  -13.6952  -18.5726   36.0408 C   0  0  0  0  0  0  0  0  0  0  0  0
  -13.3544  -17.9606   37.2251 N   0  0  0  0  0  0  0  0  0  0  0  0
  -12.0540  -17.7783   37.1336 C   0  0  0  0  0  0  0  0  0  0  0  0
  -11.6476  -17.9574   35.8349 N   0  0  0  0  0  0  0  0  0  0  0  0
  -10.4640  -17.3225   35.3091 C   0  0  0  0  0  0  0  0  0  0  0  0
   -9.3562  -17.0154   36.3576 C   0  0  0  0  0  0  0  0  0  0  0  0
   -9.7372  -17.0288   37.8588 C   0  0  0  0  0  0  0  0  0  0  0  0
  -11.0824  -17.6474   38.2433 C   0  0  0  0  0  0  0  0  0  0  0  0
  -12.5288  -21.8272   32.8804 C   0  0  0  0  0  0  0  0  0  0  0  0
  -12.5557  -23.2124   32.8475 C   0  0  0  0  0  0  0  0  0  0  0  0
  -12.0842  -23.5610   31.6076 N   0  0  0  0  0  0  0  0  0  0  0  0
  -11.9161  -24.8000   31.0095 C   0  0  0  0  0  0  0  0  0  0  0  0
  -11.6046  -24.8533   29.7093 C   0  0  0  0  0  0  0  0  0  0  0  0
  -11.3788  -26.2898   28.8228 Cl  0  0  0  0  0  0  0  0  0  0  0  0
  -11.4980  -23.5364   29.0170 C   0  0  0  0  0  0  0  0  0  0  0  0
  -11.5802  -22.3671   29.5827 N   0  0  0  0  0  0  0  0  0  0  0  0
  -11.8259  -22.3761   30.9280 C   0  0  0  0  0  0  0  0  0  0  0  0
  -11.8650  -21.3638   31.7676 N   0  0  0  0  0  0  0  0  0  0  0  0
  -11.4680  -19.7851   33.8071 H   0  0  0  0  0  0  0  0  0  0  0  0
  -14.6987  -18.9438   35.8783 H   0  0  0  0  0  0  0  0  0  0  0  0
  -10.8002  -16.4251   34.7941 H   0  0  0  0  0  0  0  0  0  0  0  0
  -10.0738  -17.8851   34.4648 H   0  0  0  0  0  0  0  0  0  0  0  0
   -8.5065  -17.6926   36.2288 H   0  0  0  0  0  0  0  0  0  0  0  0
   -8.8742  -16.0696   36.0990 H   0  0  0  0  0  0  0  0  0  0  0  0
   -9.6573  -16.0380   38.3002 H   0  0  0  0  0  0  0  0  0  0  0  0
   -8.9353  -17.5201   38.4268 H   0  0  0  0  0  0  0  0  0  0  0  0
  -11.5332  -17.1442   39.1021 H   0  0  0  0  0  0  0  0  0  0  0  0
  -10.9053  -18.6520   38.6246 H   0  0  0  0  0  0  0  0  0  0  0  0
  -12.9833  -23.9373   33.5276 H   0  0  0  0  0  0  0  0  0  0  0  0
  -12.0730  -25.6717   31.6280 H   0  0  0  0  0  0  0  0  0  0  0  0
  -11.3136  -23.5798   27.9302 H   0  0  0  0  0  0  0  0  0  0  0  0
  1  2  2  0
  2  3  1  0
  3  4  1  0
  4  5  2  0
  5  6  1  0
  6  7  2  0
  7  8  1  0
  8  9  1  0
  9 10  1  0
 10 11  1  0
 11 12  1  0
  2 13  1  0
 13 14  2  0
 14 15  1  0
 15 16  1  0
 16 17  2  0
 17 18  1  0
 17 19  1  0
 19 20  2  0
 20 21  1  0
 21 22  2  0
  8  4  1  0
 22 13  1  0
 12  7  1  0
 21 15  1  0
  3 23  1  0
  5 24  1  0
  9 25  1  0
  9 26  1  0
 10 27  1  0
 10 28  1  0
 11 29  1  0
 11 30  1  0
 12 31  1  0
 12 32  1  0
 14 33  1  0
 16 34  1  0
 19 35  1  0
M  END
>  <Energy>  (1094) 
108.78152526571037

>  <compound_id>  (1094) 
62276

>  <target_id>  (1094) 
1

>  <reference_id>  (1094) 
107

>  <inspiration_ids>  (1094) 
[107, 35]

>  <energy_score>  (1094) 
20.23496737353713

>  <distance_score>  (1094) 
1.6254198339808412

>  <path>  (1094) 
/opt/xchem-fragalysis-2/maxwin/BulkDock/SCRATCH/511021/C62276-P107/C62276-P107.minimised.mol

>  <scratch_subdir>  (1094) 
/opt/xchem-fragalysis-2/maxwin/BulkDock/SCRATCH/511021/C62276-P107

>  <fragmenstein_runtime>  (1094) 
4.980835914611816

>  <fragmenstein_outcome>  (1094) 
too moved

>  <fragmenstein_mode>  (1094) 
expansion

>  <fragmenstein_error>  (1094) 


$$$$
C62276-P35
     RDKit          3D

 35 38  0  0  0  0  0  0  0  0999 V2000
  -10.5148  -20.4389   32.3734 O   0  0  0  0  0  0  0  0  0  0  0  0
  -10.9123  -21.4142   32.8465 C   0  0  0  0  0  0  0  0  0  0  0  0
  -10.9110  -21.8783   34.2884 N   0  0  0  0  0  0  0  0  0  0  0  0
  -10.3657  -21.3166   35.3935 C   0  0  0  0  0  0  0  0  0  0  0  0
  -10.1094  -21.9457   36.5723 C   0  0  0  0  0  0  0  0  0  0  0  0
   -9.5323  -21.1071   37.4794 N   0  0  0  0  0  0  0  0  0  0  0  0
   -9.4566  -19.9414   36.8751 C   0  0  0  0  0  0  0  0  0  0  0  0
   -9.9377  -20.0310   35.5884 N   0  0  0  0  0  0  0  0  0  0  0  0
  -10.0180  -18.8956   34.6969 C   0  0  0  0  0  0  0  0  0  0  0  0
   -9.8799  -17.5503   35.4036 C   0  0  0  0  0  0  0  0  0  0  0  0
   -8.7391  -17.5900   36.4116 C   0  0  0  0  0  0  0  0  0  0  0  0
   -9.0196  -18.6489   37.4739 C   0  0  0  0  0  0  0  0  0  0  0  0
  -11.4589  -22.4307   31.9522 C   0  0  0  0  0  0  0  0  0  0  0  0
  -11.3202  -23.8023   32.0326 C   0  0  0  0  0  0  0  0  0  0  0  0
  -11.6251  -24.2529   30.7757 N   0  0  0  0  0  0  0  0  0  0  0  0
  -11.4387  -25.5078   30.2208 C   0  0  0  0  0  0  0  0  0  0  0  0
  -11.6796  -25.6686   28.9151 C   0  0  0  0  0  0  0  0  0  0  0  0
  -11.4643  -27.1298   28.0649 Cl  0  0  0  0  0  0  0  0  0  0  0  0
  -12.1709  -24.4614   28.1896 C   0  0  0  0  0  0  0  0  0  0  0  0
  -12.3722  -23.2887   28.7076 N   0  0  0  0  0  0  0  0  0  0  0  0
  -12.0653  -23.1646   30.0273 C   0  0  0  0  0  0  0  0  0  0  0  0
  -12.0176  -22.0714   30.7439 N   0  0  0  0  0  0  0  0  0  0  0  0
  -11.2664  -22.8231   34.3383 H   0  0  0  0  0  0  0  0  0  0  0  0
  -10.3543  -22.9696   36.7892 H   0  0  0  0  0  0  0  0  0  0  0  0
   -9.2096  -19.0227   33.9730 H   0  0  0  0  0  0  0  0  0  0  0  0
  -10.9950  -18.9387   34.2143 H   0  0  0  0  0  0  0  0  0  0  0  0
   -9.7109  -16.7600   34.6652 H   0  0  0  0  0  0  0  0  0  0  0  0
  -10.8172  -17.3160   35.9231 H   0  0  0  0  0  0  0  0  0  0  0  0
   -8.6151  -16.6105   36.8857 H   0  0  0  0  0  0  0  0  0  0  0  0
   -7.8040  -17.8206   35.8872 H   0  0  0  0  0  0  0  0  0  0  0  0
   -9.8134  -18.2944   38.1428 H   0  0  0  0  0  0  0  0  0  0  0  0
   -8.1342  -18.8035   38.0875 H   0  0  0  0  0  0  0  0  0  0  0  0
  -10.8914  -24.4555   32.7786 H   0  0  0  0  0  0  0  0  0  0  0  0
  -11.0732  -26.2933   30.8684 H   0  0  0  0  0  0  0  0  0  0  0  0
  -12.3893  -24.6037   27.1176 H   0  0  0  0  0  0  0  0  0  0  0  0
  1  2  2  0
  2  3  1  0
  3  4  1  0
  4  5  2  0
  5  6  1  0
  6  7  2  0
  7  8  1  0
  8  9  1  0
  9 10  1  0
 10 11  1  0
 11 12  1  0
  2 13  1  0
 13 14  2  0
 14 15  1  0
 15 16  1  0
 16 17  2  0
 17 18  1  0
 17 19  1  0
 19 20  2  0
 20 21  1  0
 21 22  2  0
  8  4  1  0
 22 13  1  0
 12  7  1  0
 21 15  1  0
  3 23  1  0
  5 24  1  0
  9 25  1  0
  9 26  1  0
 10 27  1  0
 10 28  1  0
 11 29  1  0
 11 30  1  0
 12 31  1  0
 12 32  1  0
 14 33  1  0
 16 34  1  0
 19 35  1  0
M  END
>  <Energy>  (1095) 
87.099488759118955

>  <compound_id>  (1095) 
62276

>  <target_id>  (1095) 
1

>  <reference_id>  (1095) 
35

>  <inspiration_ids>  (1095) 
[107, 35]

>  <energy_score>  (1095) 
-1.447069133054356

>  <distance_score>  (1095) 
1.4612896515894258

>  <path>  (1095) 
/opt/xchem-fragalysis-2/maxwin/BulkDock/SCRATCH/511021/C62276-P35/C62276-P35.minimised.mol

>  <scratch_subdir>  (1095) 
/opt/xchem-fragalysis-2/maxwin/BulkDock/SCRATCH/511021/C62276-P35

>  <fragmenstein_runtime>  (1095) 
8.182518482208252

>  <fragmenstein_outcome>  (1095) 
too moved

>  <fragmenstein_mode>  (1095) 
expansion

>  <fragmenstein_error>  (1095) 


$$$$
C62274-P107
     RDKit          3D

 41 44  0  0  0  0  0  0  0  0999 V2000
  -11.5162  -24.1114   26.9880 C   0  0  0  0  0  0  0  0  0  0  0  0
  -11.5992  -24.0327   28.4860 C   0  0  0  0  0  0  0  0  0  0  0  0
  -11.0174  -25.1841   29.2556 C   0  0  0  0  0  0  0  0  0  0  0  0
  -11.1836  -25.1306   30.5850 C   0  0  0  0  0  0  0  0  0  0  0  0
  -11.8565  -24.0506   31.1348 N   0  0  0  0  0  0  0  0  0  0  0  0
  -12.2112  -23.7939   32.4305 C   0  0  0  0  0  0  0  0  0  0  0  0
  -12.9773  -22.6465   32.3728 C   0  0  0  0  0  0  0  0  0  0  0  0
  -13.7744  -22.0086   33.4430 C   0  0  0  0  0  0  0  0  0  0  0  0
  -14.9712  -21.4004   32.9320 N   0  0  0  0  0  0  0  0  0  0  0  0
  -15.9770  -20.4624   33.6061 C   0  0  0  0  0  0  0  0  0  0  0  0
  -15.9592  -19.9684   34.6600 O   0  0  0  0  0  0  0  0  0  0  0  0
  -17.0965  -20.2024   32.6942 C   0  0  0  0  0  0  0  0  0  0  0  0
  -17.0245  -20.2852   31.3711 N   0  0  0  0  0  0  0  0  0  0  0  0
  -18.2898  -20.0142   30.9111 C   0  0  0  0  0  0  0  0  0  0  0  0
  -19.1304  -19.6782   31.9443 C   0  0  0  0  0  0  0  0  0  0  0  0
  -18.3620  -19.8147   33.0732 N   0  0  0  0  0  0  0  0  0  0  0  0
  -18.8381  -19.5621   34.4220 C   0  0  0  0  0  0  0  0  0  0  0  0
  -20.3642  -19.4731   34.4997 C   0  0  0  0  0  0  0  0  0  0  0  0
  -20.9308  -18.6594   33.3353 C   0  0  0  0  0  0  0  0  0  0  0  0
  -20.5678  -19.3046   31.9957 C   0  0  0  0  0  0  0  0  0  0  0  0
  -12.9678  -22.1285   31.1015 N   0  0  0  0  0  0  0  0  0  0  0  0
  -12.3377  -23.0046   30.3564 C   0  0  0  0  0  0  0  0  0  0  0  0
  -12.1902  -23.0000   29.0040 N   0  0  0  0  0  0  0  0  0  0  0  0
  -11.8080  -23.1603   26.5369 H   0  0  0  0  0  0  0  0  0  0  0  0
  -10.4960  -24.3559   26.6859 H   0  0  0  0  0  0  0  0  0  0  0  0
  -12.1939  -24.8918   26.6300 H   0  0  0  0  0  0  0  0  0  0  0  0
  -10.5116  -25.9875   28.7391 H   0  0  0  0  0  0  0  0  0  0  0  0
  -10.8283  -25.8959   31.2639 H   0  0  0  0  0  0  0  0  0  0  0  0
  -11.9901  -24.4722   33.2420 H   0  0  0  0  0  0  0  0  0  0  0  0
  -14.0968  -22.7562   34.1723 H   0  0  0  0  0  0  0  0  0  0  0  0
  -13.1940  -21.2335   33.9506 H   0  0  0  0  0  0  0  0  0  0  0  0
  -15.2630  -21.5770   31.9681 H   0  0  0  0  0  0  0  0  0  0  0  0
  -18.5333  -20.0770   29.8592 H   0  0  0  0  0  0  0  0  0  0  0  0
  -18.4829  -20.3691   35.0707 H   0  0  0  0  0  0  0  0  0  0  0  0
  -18.3865  -18.6166   34.7418 H   0  0  0  0  0  0  0  0  0  0  0  0
  -20.6590  -19.0258   35.4553 H   0  0  0  0  0  0  0  0  0  0  0  0
  -20.7916  -20.4836   34.4731 H   0  0  0  0  0  0  0  0  0  0  0  0
  -20.5302  -17.6390   33.3770 H   0  0  0  0  0  0  0  0  0  0  0  0
  -22.0201  -18.5815   33.4240 H   0  0  0  0  0  0  0  0  0  0  0  0
  -21.1725  -20.2078   31.8489 H   0  0  0  0  0  0  0  0  0  0  0  0
  -20.8100  -18.6150   31.1793 H   0  0  0  0  0  0  0  0  0  0  0  0
  1  2  1  0
  2  3  1  0
  3  4  2  0
  4  5  1  0
  5  6  1  0
  6  7  2  0
  7  8  1  0
  8  9  1  0
  9 10  1  0
 10 11  2  0
 10 12  1  0
 12 13  2  0
 13 14  1  0
 14 15  2  0
 15 16  1  0
 16 17  1  0
 17 18  1  0
 18 19  1  0
 19 20  1  0
  7 21  1  0
 21 22  2  0
 22 23  1  0
 23  2  2  0
 22  5  1  0
 16 12  1  0
 20 15  1  0
  1 24  1  0
  1 25  1  0
  1 26  1  0
  3 27  1  0
  4 28  1  0
  6 29  1  0
  8 30  1  0
  8 31  1  0
  9 32  1  0
 14 33  1  0
 17 34  1  0
 17 35  1  0
 18 36  1  0
 18 37  1  0
 19 38  1  0
 19 39  1  0
 20 40  1  0
 20 41  1  0
M  END
>  <Energy>  (1096) 
43.896536873721054

>  <compound_id>  (1096) 
62274

>  <target_id>  (1096) 
1

>  <reference_id>  (1096) 
107

>  <inspiration_ids>  (1096) 
[107, 35]

>  <energy_score>  (1096) 
-17.62402061420198

>  <distance_score>  (1096) 
2.4545523890071204

>  <path>  (1096) 
/opt/xchem-fragalysis-2/maxwin/BulkDock/SCRATCH/511021/C62274-P107/C62274-P107.minimised.mol

>  <scratch_subdir>  (1096) 
/opt/xchem-fragalysis-2/maxwin/BulkDock/SCRATCH/511021/C62274-P107

>  <fragmenstein_runtime>  (1096) 
10.907447576522827

>  <fragmenstein_outcome>  (1096) 
too moved

>  <fragmenstein_mode>  (1096) 
expansion

>  <fragmenstein_error>  (1096) 


$$$$
C62274-P35
     RDKit          3D

 41 44  0  0  0  0  0  0  0  0999 V2000
  -11.8607  -23.6023   27.4811 C   0  0  0  0  0  0  0  0  0  0  0  0
  -11.8360  -23.5589   28.9866 C   0  0  0  0  0  0  0  0  0  0  0  0
  -11.6897  -24.8862   29.6694 C   0  0  0  0  0  0  0  0  0  0  0  0
  -11.5257  -24.8316   30.9963 C   0  0  0  0  0  0  0  0  0  0  0  0
  -11.5004  -23.5968   31.6254 N   0  0  0  0  0  0  0  0  0  0  0  0
  -11.1190  -23.2818   32.9014 C   0  0  0  0  0  0  0  0  0  0  0  0
  -10.9617  -21.9074   32.9243 C   0  0  0  0  0  0  0  0  0  0  0  0
  -10.0779  -21.1515   33.8707 C   0  0  0  0  0  0  0  0  0  0  0  0
  -10.5739  -20.0492   34.6445 N   0  0  0  0  0  0  0  0  0  0  0  0
  -11.9979  -19.5184   34.8207 C   0  0  0  0  0  0  0  0  0  0  0  0
  -12.9917  -19.8394   34.3078 O   0  0  0  0  0  0  0  0  0  0  0  0
  -11.9768  -18.5119   35.9021 C   0  0  0  0  0  0  0  0  0  0  0  0
  -10.9388  -18.3429   36.7152 N   0  0  0  0  0  0  0  0  0  0  0  0
  -11.4320  -17.7349   37.8417 C   0  0  0  0  0  0  0  0  0  0  0  0
  -12.7820  -17.4974   37.7094 C   0  0  0  0  0  0  0  0  0  0  0  0
  -13.0492  -17.7908   36.3836 N   0  0  0  0  0  0  0  0  0  0  0  0
  -14.3391  -17.6090   35.7449 C   0  0  0  0  0  0  0  0  0  0  0  0
  -15.3118  -16.7495   36.5563 C   0  0  0  0  0  0  0  0  0  0  0  0
  -15.2498  -16.9887   38.0710 C   0  0  0  0  0  0  0  0  0  0  0  0
  -13.8364  -17.0656   38.6845 C   0  0  0  0  0  0  0  0  0  0  0  0
  -11.4008  -21.3845   31.7227 N   0  0  0  0  0  0  0  0  0  0  0  0
  -11.6941  -22.4052   30.9386 C   0  0  0  0  0  0  0  0  0  0  0  0
  -11.9177  -22.4052   29.5868 N   0  0  0  0  0  0  0  0  0  0  0  0
  -11.7326  -22.5985   27.0741 H   0  0  0  0  0  0  0  0  0  0  0  0
  -11.0382  -24.2252   27.1171 H   0  0  0  0  0  0  0  0  0  0  0  0
  -12.8034  -24.0295   27.1354 H   0  0  0  0  0  0  0  0  0  0  0  0
  -11.6961  -25.8012   29.0955 H   0  0  0  0  0  0  0  0  0  0  0  0
  -11.3689  -25.7054   31.6144 H   0  0  0  0  0  0  0  0  0  0  0  0
  -10.8064  -24.0441   33.5967 H   0  0  0  0  0  0  0  0  0  0  0  0
   -9.6746  -21.8557   34.6073 H   0  0  0  0  0  0  0  0  0  0  0  0
   -9.2173  -20.7683   33.3184 H   0  0  0  0  0  0  0  0  0  0  0  0
   -9.9304  -19.4818   35.1918 H   0  0  0  0  0  0  0  0  0  0  0  0
  -10.8033  -17.5700   38.7082 H   0  0  0  0  0  0  0  0  0  0  0  0
  -14.1537  -17.1441   34.7709 H   0  0  0  0  0  0  0  0  0  0  0  0
  -14.7829  -18.5926   35.5749 H   0  0  0  0  0  0  0  0  0  0  0  0
  -16.3334  -16.9347   36.2016 H   0  0  0  0  0  0  0  0  0  0  0  0
  -15.1299  -15.6937   36.3383 H   0  0  0  0  0  0  0  0  0  0  0  0
  -15.7840  -17.9221   38.2887 H   0  0  0  0  0  0  0  0  0  0  0  0
  -15.8239  -16.2104   38.5886 H   0  0  0  0  0  0  0  0  0  0  0  0
  -13.5655  -16.1135   39.1490 H   0  0  0  0  0  0  0  0  0  0  0  0
  -13.8585  -17.7759   39.5219 H   0  0  0  0  0  0  0  0  0  0  0  0
  1  2  1  0
  2  3  1  0
  3  4  2  0
  4  5  1  0
  5  6  1  0
  6  7  2  0
  7  8  1  0
  8  9  1  0
  9 10  1  0
 10 11  2  0
 10 12  1  0
 12 13  2  0
 13 14  1  0
 14 15  2  0
 15 16  1  0
 16 17  1  0
 17 18  1  0
 18 19  1  0
 19 20  1  0
  7 21  1  0
 21 22  2  0
 22 23  1  0
 23  2  2  0
 22  5  1  0
 16 12  1  0
 20 15  1  0
  1 24  1  0
  1 25  1  0
  1 26  1  0
  3 27  1  0
  4 28  1  0
  6 29  1  0
  8 30  1  0
  8 31  1  0
  9 32  1  0
 14 33  1  0
 17 34  1  0
 17 35  1  0
 18 36  1  0
 18 37  1  0
 19 38  1  0
 19 39  1  0
 20 40  1  0
 20 41  1  0
M  END
>  <Energy>  (1097) 
66.214155030926989

>  <compound_id>  (1097) 
62274

>  <target_id>  (1097) 
1

>  <reference_id>  (1097) 
35

>  <inspiration_ids>  (1097) 
[107, 35]

>  <energy_score>  (1097) 
4.693597543002568

>  <distance_score>  (1097) 
1.1658371293789476

>  <path>  (1097) 
/opt/xchem-fragalysis-2/maxwin/BulkDock/SCRATCH/511021/C62274-P35/C62274-P35.minimised.mol

>  <scratch_subdir>  (1097) 
/opt/xchem-fragalysis-2/maxwin/BulkDock/SCRATCH/511021/C62274-P35

>  <fragmenstein_runtime>  (1097) 
4.701396942138672

>  <fragmenstein_outcome>  (1097) 
too moved

>  <fragmenstein_mode>  (1097) 
expansion

>  <fragmenstein_error>  (1097) 


$$$$
C62277-P107
     RDKit          3D

 38 41  0  0  0  0  0  0  0  0999 V2000
  -10.6440  -23.9546   27.7523 O   0  0  0  0  0  0  0  0  0  0  0  0
  -11.6944  -24.2785   27.9953 C   0  0  0  0  0  0  0  0  0  0  0  0
  -12.4599  -25.4943   27.5667 N   0  0  0  0  0  0  0  0  0  0  0  0
  -12.0554  -26.6021   26.8287 C   0  0  0  0  0  0  0  0  0  0  0  0
  -12.0235  -27.6515   27.9785 C   0  0  0  0  0  0  0  0  0  0  0  0
  -11.3544  -27.1870   29.2591 C   0  0  0  0  0  0  0  0  0  0  0  0
  -10.0372  -26.8616   29.5089 C   0  0  0  0  0  0  0  0  0  0  0  0
  -10.0196  -26.3800   30.7787 N   0  0  0  0  0  0  0  0  0  0  0  0
  -11.3003  -26.2293   31.1571 C   0  0  0  0  0  0  0  0  0  0  0  0
  -12.1275  -26.7980   30.3273 N   0  0  0  0  0  0  0  0  0  0  0  0
  -11.5022  -25.0945   32.4270 S   0  0  0  0  0  0  0  0  0  0  0  0
   -9.7317  -24.9259   32.6982 C   0  0  0  0  0  0  0  0  0  0  0  0
   -9.0741  -25.5589   31.4839 C   0  0  0  0  0  0  0  0  0  0  0  0
  -12.7165  -23.6686   28.9316 N   0  0  0  0  0  0  0  0  0  0  0  0
  -12.6117  -22.6568   29.7669 C   0  0  0  0  0  0  0  0  0  0  0  0
  -11.3956  -21.8479   29.7569 C   0  0  0  0  0  0  0  0  0  0  0  0
  -10.8974  -21.2831   30.8038 N   0  0  0  0  0  0  0  0  0  0  0  0
  -11.6258  -21.3880   31.9454 C   0  0  0  0  0  0  0  0  0  0  0  0
  -11.5217  -20.6631   33.0258 N   0  0  0  0  0  0  0  0  0  0  0  0
  -12.5416  -21.0387   33.8444 C   0  0  0  0  0  0  0  0  0  0  0  0
  -13.3134  -22.0042   33.2566 C   0  0  0  0  0  0  0  0  0  0  0  0
  -12.8022  -22.1038   32.0004 N   0  0  0  0  0  0  0  0  0  0  0  0
  -13.3031  -22.7248   30.8998 C   0  0  0  0  0  0  0  0  0  0  0  0
  -13.4004  -25.4318   27.8993 H   0  0  0  0  0  0  0  0  0  0  0  0
  -12.8059  -26.7459   26.0563 H   0  0  0  0  0  0  0  0  0  0  0  0
  -11.0629  -26.4359   26.4029 H   0  0  0  0  0  0  0  0  0  0  0  0
  -13.0617  -27.8964   28.2454 H   0  0  0  0  0  0  0  0  0  0  0  0
  -11.5920  -28.5811   27.6487 H   0  0  0  0  0  0  0  0  0  0  0  0
   -9.1998  -26.8647   28.8334 H   0  0  0  0  0  0  0  0  0  0  0  0
   -9.4665  -25.4375   33.6249 H   0  0  0  0  0  0  0  0  0  0  0  0
   -9.4528  -23.8762   32.8006 H   0  0  0  0  0  0  0  0  0  0  0  0
   -8.8001  -24.8153   30.7560 H   0  0  0  0  0  0  0  0  0  0  0  0
   -8.2075  -26.1343   31.7758 H   0  0  0  0  0  0  0  0  0  0  0  0
  -13.5271  -24.2570   28.9741 H   0  0  0  0  0  0  0  0  0  0  0  0
  -10.8750  -21.7488   28.7925 H   0  0  0  0  0  0  0  0  0  0  0  0
  -12.6508  -20.5567   34.8038 H   0  0  0  0  0  0  0  0  0  0  0  0
  -14.1925  -22.5451   33.5779 H   0  0  0  0  0  0  0  0  0  0  0  0
  -14.1500  -23.3484   31.0715 H   0  0  0  0  0  0  0  0  0  0  0  0
  1  2  2  0
  2  3  1  0
  3  4  1  0
  4  5  1  0
  5  6  1  0
  6  7  2  0
  7  8  1  0
  8  9  1  0
  9 10  2  0
  9 11  1  0
 11 12  1  0
 12 13  1  0
  2 14  1  0
 14 15  1  0
 15 16  1  0
 16 17  2  0
 17 18  1  0
 18 19  2  0
 19 20  1  0
 20 21  2  0
 21 22  1  0
 22 23  1  0
 10  6  1  0
 23 15  2  0
 13  8  1  0
 22 18  1  0
  3 24  1  0
  4 25  1  0
  4 26  1  0
  5 27  1  0
  5 28  1  0
  7 29  1  0
 12 30  1  0
 12 31  1  0
 13 32  1  0
 13 33  1  0
 14 34  1  0
 16 35  1  0
 20 36  1  0
 21 37  1  0
 23 38  1  0
M  END
>  <Energy>  (1098) 
24.021430096664972

>  <compound_id>  (1098) 
62277

>  <target_id>  (1098) 
1

>  <reference_id>  (1098) 
107

>  <inspiration_ids>  (1098) 
[107, 35]

>  <energy_score>  (1098) 
-14.994471361975116

>  <distance_score>  (1098) 
2.3693399333362084

>  <path>  (1098) 
/opt/xchem-fragalysis-2/maxwin/BulkDock/SCRATCH/511021/C62277-P107/C62277-P107.minimised.mol

>  <scratch_subdir>  (1098) 
/opt/xchem-fragalysis-2/maxwin/BulkDock/SCRATCH/511021/C62277-P107

>  <fragmenstein_runtime>  (1098) 
4.4434216022491455

>  <fragmenstein_outcome>  (1098) 
too moved

>  <fragmenstein_mode>  (1098) 
expansion

>  <fragmenstein_error>  (1098) 


$$$$
C62277-P35
     RDKit          3D

 38 41  0  0  0  0  0  0  0  0999 V2000
  -11.6769  -25.1666   27.4567 O   0  0  0  0  0  0  0  0  0  0  0  0
  -12.5433  -25.4740   28.1216 C   0  0  0  0  0  0  0  0  0  0  0  0
  -13.2214  -26.8353   28.2990 N   0  0  0  0  0  0  0  0  0  0  0  0
  -12.8963  -28.0924   27.7594 C   0  0  0  0  0  0  0  0  0  0  0  0
  -12.2665  -28.8851   28.9446 C   0  0  0  0  0  0  0  0  0  0  0  0
  -11.4685  -28.0968   29.9844 C   0  0  0  0  0  0  0  0  0  0  0  0
  -10.2187  -28.2880   30.5758 C   0  0  0  0  0  0  0  0  0  0  0  0
  -10.0752  -27.2387   31.4201 N   0  0  0  0  0  0  0  0  0  0  0  0
  -11.1127  -26.4119   31.2268 C   0  0  0  0  0  0  0  0  0  0  0  0
  -12.0622  -26.9693   30.5441 N   0  0  0  0  0  0  0  0  0  0  0  0
  -10.9004  -24.9010   31.9660 S   0  0  0  0  0  0  0  0  0  0  0  0
   -9.2949  -25.3425   32.6249 C   0  0  0  0  0  0  0  0  0  0  0  0
   -9.1723  -26.8388   32.4620 C   0  0  0  0  0  0  0  0  0  0  0  0
  -13.3137  -24.6743   29.1827 N   0  0  0  0  0  0  0  0  0  0  0  0
  -13.1058  -23.4422   29.6592 C   0  0  0  0  0  0  0  0  0  0  0  0
  -12.0013  -22.5818   29.1463 C   0  0  0  0  0  0  0  0  0  0  0  0
  -11.3566  -21.7052   29.8548 N   0  0  0  0  0  0  0  0  0  0  0  0
  -11.6522  -21.6974   31.1892 C   0  0  0  0  0  0  0  0  0  0  0  0
  -10.9869  -21.1475   32.1826 N   0  0  0  0  0  0  0  0  0  0  0  0
  -11.7213  -21.3799   33.3141 C   0  0  0  0  0  0  0  0  0  0  0  0
  -12.8647  -22.0738   33.0155 C   0  0  0  0  0  0  0  0  0  0  0  0
  -12.7808  -22.3370   31.6783 N   0  0  0  0  0  0  0  0  0  0  0  0
  -13.5294  -23.1940   30.9054 C   0  0  0  0  0  0  0  0  0  0  0  0
  -13.9061  -26.7777   29.0294 H   0  0  0  0  0  0  0  0  0  0  0  0
  -12.1535  -27.9435   26.9717 H   0  0  0  0  0  0  0  0  0  0  0  0
  -13.7906  -28.5869   27.3745 H   0  0  0  0  0  0  0  0  0  0  0  0
  -13.0718  -29.3945   29.4897 H   0  0  0  0  0  0  0  0  0  0  0  0
  -11.6641  -29.6433   28.4813 H   0  0  0  0  0  0  0  0  0  0  0  0
   -9.4540  -29.0349   30.4673 H   0  0  0  0  0  0  0  0  0  0  0  0
   -9.2876  -25.0690   33.6800 H   0  0  0  0  0  0  0  0  0  0  0  0
   -8.5315  -24.8176   32.0565 H   0  0  0  0  0  0  0  0  0  0  0  0
   -8.1754  -27.2097   32.2745 H   0  0  0  0  0  0  0  0  0  0  0  0
   -9.5524  -27.2515   33.3928 H   0  0  0  0  0  0  0  0  0  0  0  0
  -13.9715  -25.2744   29.6453 H   0  0  0  0  0  0  0  0  0  0  0  0
  -11.7592  -22.6851   28.0760 H   0  0  0  0  0  0  0  0  0  0  0  0
  -11.3914  -21.0195   34.2793 H   0  0  0  0  0  0  0  0  0  0  0  0
  -13.6803  -22.4331   33.6233 H   0  0  0  0  0  0  0  0  0  0  0  0
  -14.2573  -23.7948   31.4361 H   0  0  0  0  0  0  0  0  0  0  0  0
  1  2  2  0
  2  3  1  0
  3  4  1  0
  4  5  1  0
  5  6  1  0
  6  7  2  0
  7  8  1  0
  8  9  1  0
  9 10  2  0
  9 11  1  0
 11 12  1  0
 12 13  1  0
  2 14  1  0
 14 15  1  0
 15 16  1  0
 16 17  2  0
 17 18  1  0
 18 19  2  0
 19 20  1  0
 20 21  2  0
 21 22  1  0
 22 23  1  0
 10  6  1  0
 23 15  2  0
 13  8  1  0
 22 18  1  0
  3 24  1  0
  4 25  1  0
  4 26  1  0
  5 27  1  0
  5 28  1  0
  7 29  1  0
 12 30  1  0
 12 31  1  0
 13 32  1  0
 13 33  1  0
 14 34  1  0
 16 35  1  0
 20 36  1  0
 21 37  1  0
 23 38  1  0
M  END
>  <Energy>  (1099) 
27.837551223416106

>  <compound_id>  (1099) 
62277

>  <target_id>  (1099) 
1

>  <reference_id>  (1099) 
35

>  <inspiration_ids>  (1099) 
[107, 35]

>  <energy_score>  (1099) 
-11.178350235224798

>  <distance_score>  (1099) 
1.9742344980658897

>  <path>  (1099) 
/opt/xchem-fragalysis-2/maxwin/BulkDock/SCRATCH/511021/C62277-P35/C62277-P35.minimised.mol

>  <scratch_subdir>  (1099) 
/opt/xchem-fragalysis-2/maxwin/BulkDock/SCRATCH/511021/C62277-P35

>  <fragmenstein_runtime>  (1099) 
6.924799203872681

>  <fragmenstein_outcome>  (1099) 
too moved

>  <fragmenstein_mode>  (1099) 
expansion

>  <fragmenstein_error>  (1099) 


$$$$
C62278-P107
     RDKit          3D

 36 39  0  0  0  0  0  0  0  0999 V2000
  -10.8430  -25.9731   32.3292 O   0  0  0  0  0  0  0  0  0  0  0  0
  -11.6319  -25.1835   31.9096 C   0  0  0  0  0  0  0  0  0  0  0  0
  -12.6032  -24.4013   32.5777 N   0  0  0  0  0  0  0  0  0  0  0  0
  -12.8840  -24.2401   33.9832 C   0  0  0  0  0  0  0  0  0  0  0  0
  -11.5885  -23.7732   34.6462 C   0  0  0  0  0  0  0  0  0  0  0  0
  -10.8929  -24.1446   36.2508 C   0  0  0  0  0  0  0  0  0  0  0  0
   -9.8967  -24.8186   36.8301 C   0  0  0  0  0  0  0  0  0  0  0  0
  -10.2392  -24.6157   38.7303 N   0  0  0  0  0  0  0  0  0  0  0  0
   -9.8786  -23.4931   38.8839 C   0  0  0  0  0  0  0  0  0  0  0  0
  -11.0185  -23.3709   37.6581 N   0  0  0  0  0  0  0  0  0  0  0  0
   -7.7331  -23.9022   39.1277 S   0  0  0  0  0  0  0  0  0  0  0  0
   -8.8229  -24.3269   40.6856 C   0  0  0  0  0  0  0  0  0  0  0  0
   -9.9747  -25.1665   40.2250 C   0  0  0  0  0  0  0  0  0  0  0  0
  -11.6428  -24.9330   30.4861 C   0  0  0  0  0  0  0  0  0  0  0  0
  -11.0570  -25.7671   29.5624 C   0  0  0  0  0  0  0  0  0  0  0  0
  -11.3465  -25.2045   28.3700 N   0  0  0  0  0  0  0  0  0  0  0  0
  -11.1024  -25.6944   27.1063 C   0  0  0  0  0  0  0  0  0  0  0  0
  -11.4924  -24.9683   26.0571 C   0  0  0  0  0  0  0  0  0  0  0  0
  -12.1146  -23.6596   26.3821 C   0  0  0  0  0  0  0  0  0  0  0  0
  -12.3469  -23.1917   27.5683 N   0  0  0  0  0  0  0  0  0  0  0  0
  -11.9967  -23.9973   28.6035 C   0  0  0  0  0  0  0  0  0  0  0  0
  -12.2154  -23.8312   29.8871 N   0  0  0  0  0  0  0  0  0  0  0  0
  -13.1584  -23.8983   31.8840 H   0  0  0  0  0  0  0  0  0  0  0  0
  -13.6934  -23.5121   34.0915 H   0  0  0  0  0  0  0  0  0  0  0  0
  -13.2333  -25.2107   34.3144 H   0  0  0  0  0  0  0  0  0  0  0  0
  -10.8192  -24.1800   33.9730 H   0  0  0  0  0  0  0  0  0  0  0  0
  -11.6452  -22.6828   34.5581 H   0  0  0  0  0  0  0  0  0  0  0  0
   -8.9112  -25.2217   36.4926 H   0  0  0  0  0  0  0  0  0  0  0  0
   -8.2888  -24.9675   41.3004 H   0  0  0  0  0  0  0  0  0  0  0  0
   -9.1174  -23.4314   41.2477 H   0  0  0  0  0  0  0  0  0  0  0  0
  -10.3944  -24.7967   41.1605 H   0  0  0  0  0  0  0  0  0  0  0  0
  -10.8646  -25.7558   40.5123 H   0  0  0  0  0  0  0  0  0  0  0  0
  -10.5156  -26.6958   29.6820 H   0  0  0  0  0  0  0  0  0  0  0  0
  -10.6115  -26.6546   27.0260 H   0  0  0  0  0  0  0  0  0  0  0  0
  -11.3619  -25.2519   25.0322 H   0  0  0  0  0  0  0  0  0  0  0  0
  -12.3827  -23.0601   25.4985 H   0  0  0  0  0  0  0  0  0  0  0  0
  1  2  2  0
  2  3  1  0
  3  4  1  0
  4  5  1  0
  5  6  1  0
  6  7  2  0
  7  8  1  0
  8  9  1  0
  9 10  2  0
  9 11  1  0
 11 12  1  0
 12 13  1  0
  2 14  1  0
 14 15  2  0
 15 16  1  0
 16 17  1  0
 17 18  2  0
 18 19  1  0
 19 20  2  0
 20 21  1  0
 21 22  2  0
 10  6  1  0
 22 14  1  0
 13  8  1  0
 21 16  1  0
  3 23  1  0
  4 24  1  0
  4 25  1  0
  5 26  1  0
  5 27  1  0
  7 28  1  0
 12 29  1  0
 12 30  1  0
 13 31  1  0
 13 32  1  0
 15 33  1  0
 17 34  1  0
 18 35  1  0
 19 36  1  0
M  END
>  <Energy>  (1100) 
540.31836016727652

>  <compound_id>  (1100) 
62278

>  <target_id>  (1100) 
1

>  <reference_id>  (1100) 
107

>  <inspiration_ids>  (1100) 
[107, 35]

>  <energy_score>  (1100) 
459.08332807392503

>  <distance_score>  (1100) 
3.507494086517386

>  <path>  (1100) 
/opt/xchem-fragalysis-2/maxwin/BulkDock/SCRATCH/511021/C62278-P107/C62278-P107.minimised.mol

>  <scratch_subdir>  (1100) 
/opt/xchem-fragalysis-2/maxwin/BulkDock/SCRATCH/511021/C62278-P107

>  <fragmenstein_runtime>  (1100) 
11.479524612426758

>  <fragmenstein_outcome>  (1100) 
too moved

>  <fragmenstein_mode>  (1100) 
expansion

>  <fragmenstein_error>  (1100) 


$$$$
C62278-P35
     RDKit          3D

 36 39  0  0  0  0  0  0  0  0999 V2000
  -10.2775  -22.8960   34.5666 O   0  0  0  0  0  0  0  0  0  0  0  0
  -10.6122  -22.2116   33.6874 C   0  0  0  0  0  0  0  0  0  0  0  0
  -10.5494  -20.6916   33.5347 N   0  0  0  0  0  0  0  0  0  0  0  0
  -10.1495  -19.6770   34.4662 C   0  0  0  0  0  0  0  0  0  0  0  0
  -11.0568  -19.7018   35.6788 C   0  0  0  0  0  0  0  0  0  0  0  0
  -12.0289  -18.5684   35.7709 C   0  0  0  0  0  0  0  0  0  0  0  0
  -12.1066  -17.5923   36.7616 C   0  0  0  0  0  0  0  0  0  0  0  0
  -13.2828  -16.9715   36.5149 N   0  0  0  0  0  0  0  0  0  0  0  0
  -13.8385  -17.5198   35.4080 C   0  0  0  0  0  0  0  0  0  0  0  0
  -13.1329  -18.5024   34.9280 N   0  0  0  0  0  0  0  0  0  0  0  0
  -15.3909  -16.8761   35.0494 S   0  0  0  0  0  0  0  0  0  0  0  0
  -15.1737  -15.5453   36.2993 C   0  0  0  0  0  0  0  0  0  0  0  0
  -14.1050  -16.0539   37.2696 C   0  0  0  0  0  0  0  0  0  0  0  0
  -11.1476  -22.7701   32.4472 C   0  0  0  0  0  0  0  0  0  0  0  0
  -11.1632  -24.1053   32.1124 C   0  0  0  0  0  0  0  0  0  0  0  0
  -11.5305  -24.1420   30.8031 N   0  0  0  0  0  0  0  0  0  0  0  0
  -11.5373  -25.2141   29.9261 C   0  0  0  0  0  0  0  0  0  0  0  0
  -11.7901  -24.9915   28.6303 C   0  0  0  0  0  0  0  0  0  0  0  0
  -12.0615  -23.5685   28.2772 C   0  0  0  0  0  0  0  0  0  0  0  0
  -12.0910  -22.5603   29.0933 N   0  0  0  0  0  0  0  0  0  0  0  0
  -11.8037  -22.8373   30.3971 C   0  0  0  0  0  0  0  0  0  0  0  0
  -11.6011  -21.9956   31.3891 N   0  0  0  0  0  0  0  0  0  0  0  0
  -11.0074  -20.4184   32.6659 H   0  0  0  0  0  0  0  0  0  0  0  0
  -10.1084  -18.7073   33.9747 H   0  0  0  0  0  0  0  0  0  0  0  0
   -9.1338  -19.9459   34.7753 H   0  0  0  0  0  0  0  0  0  0  0  0
  -10.4237  -19.6681   36.5755 H   0  0  0  0  0  0  0  0  0  0  0  0
  -11.6169  -20.6412   35.7246 H   0  0  0  0  0  0  0  0  0  0  0  0
  -11.4791  -17.3738   37.6131 H   0  0  0  0  0  0  0  0  0  0  0  0
  -14.8239  -14.6469   35.7796 H   0  0  0  0  0  0  0  0  0  0  0  0
  -16.1148  -15.3161   36.8062 H   0  0  0  0  0  0  0  0  0  0  0  0
  -14.5520  -16.6226   38.0928 H   0  0  0  0  0  0  0  0  0  0  0  0
  -13.4941  -15.2485   37.6808 H   0  0  0  0  0  0  0  0  0  0  0  0
  -10.8568  -24.9814   32.6640 H   0  0  0  0  0  0  0  0  0  0  0  0
  -11.3077  -26.1911   30.3299 H   0  0  0  0  0  0  0  0  0  0  0  0
  -11.8066  -25.7503   27.8627 H   0  0  0  0  0  0  0  0  0  0  0  0
  -12.2614  -23.3883   27.2075 H   0  0  0  0  0  0  0  0  0  0  0  0
  1  2  2  0
  2  3  1  0
  3  4  1  0
  4  5  1  0
  5  6  1  0
  6  7  2  0
  7  8  1  0
  8  9  1  0
  9 10  2  0
  9 11  1  0
 11 12  1  0
 12 13  1  0
  2 14  1  0
 14 15  2  0
 15 16  1  0
 16 17  1  0
 17 18  2  0
 18 19  1  0
 19 20  2  0
 20 21  1  0
 21 22  2  0
 10  6  1  0
 22 14  1  0
 13  8  1  0
 21 16  1  0
  3 23  1  0
  4 24  1  0
  4 25  1  0
  5 26  1  0
  5 27  1  0
  7 28  1  0
 12 29  1  0
 12 30  1  0
 13 31  1  0
 13 32  1  0
 15 33  1  0
 17 34  1  0
 18 35  1  0
 19 36  1  0
M  END
>  <Energy>  (1101) 
51.769741671211776

>  <compound_id>  (1101) 
62278

>  <target_id>  (1101) 
1

>  <reference_id>  (1101) 
35

>  <inspiration_ids>  (1101) 
[107, 35]

>  <energy_score>  (1101) 
-26.77939497768432

>  <distance_score>  (1101) 
1.099327764820988

>  <path>  (1101) 
/opt/xchem-fragalysis-2/maxwin/BulkDock/SCRATCH/511021/C62278-P35/C62278-P35.minimised.mol

>  <scratch_subdir>  (1101) 
/opt/xchem-fragalysis-2/maxwin/BulkDock/SCRATCH/511021/C62278-P35

>  <fragmenstein_runtime>  (1101) 
7.858373165130615

>  <fragmenstein_outcome>  (1101) 
too moved

>  <fragmenstein_mode>  (1101) 
expansion

>  <fragmenstein_error>  (1101) 


$$$$
C62279-P107
     RDKit          3D

 38 41  0  0  0  0  0  0  0  0999 V2000
  -11.2991  -25.1653   34.0696 O   0  0  0  0  0  0  0  0  0  0  0  0
  -11.0891  -24.5022   33.1460 C   0  0  0  0  0  0  0  0  0  0  0  0
  -10.0377  -24.6357   32.0537 N   0  0  0  0  0  0  0  0  0  0  0  0
   -9.0950  -25.6474   31.8138 C   0  0  0  0  0  0  0  0  0  0  0  0
   -9.8978  -26.5698   30.9945 C   0  0  0  0  0  0  0  0  0  0  0  0
  -10.7199  -27.6215   31.3190 C   0  0  0  0  0  0  0  0  0  0  0  0
  -11.6375  -27.8710   30.3437 N   0  0  0  0  0  0  0  0  0  0  0  0
  -11.3338  -27.0168   29.4088 C   0  0  0  0  0  0  0  0  0  0  0  0
  -10.1626  -26.3891   29.6772 N   0  0  0  0  0  0  0  0  0  0  0  0
   -9.4423  -25.6508   28.6792 C   0  0  0  0  0  0  0  0  0  0  0  0
  -10.3356  -24.9901   27.6644 C   0  0  0  0  0  0  0  0  0  0  0  0
  -11.3252  -26.0026   27.1382 C   0  0  0  0  0  0  0  0  0  0  0  0
  -12.1263  -26.6934   28.2261 C   0  0  0  0  0  0  0  0  0  0  0  0
  -11.8733  -23.3853   32.7331 C   0  0  0  0  0  0  0  0  0  0  0  0
  -12.0962  -22.1663   33.3098 C   0  0  0  0  0  0  0  0  0  0  0  0
  -11.9983  -21.2056   32.3348 N   0  0  0  0  0  0  0  0  0  0  0  0
  -11.9410  -21.8579   31.1952 C   0  0  0  0  0  0  0  0  0  0  0  0
  -11.6773  -21.4343   29.9266 N   0  0  0  0  0  0  0  0  0  0  0  0
  -12.0745  -22.2301   28.9897 C   0  0  0  0  0  0  0  0  0  0  0  0
  -12.7514  -23.5357   29.1895 C   0  0  0  0  0  0  0  0  0  0  0  0
  -12.6370  -24.0209   30.4286 C   0  0  0  0  0  0  0  0  0  0  0  0
  -12.2460  -23.1738   31.4361 N   0  0  0  0  0  0  0  0  0  0  0  0
  -10.0837  -23.8415   31.4477 H   0  0  0  0  0  0  0  0  0  0  0  0
   -8.2792  -25.2423   31.2505 H   0  0  0  0  0  0  0  0  0  0  0  0
   -8.7108  -25.8990   32.7855 H   0  0  0  0  0  0  0  0  0  0  0  0
  -10.7781  -28.1213   32.2622 H   0  0  0  0  0  0  0  0  0  0  0  0
   -8.8378  -24.9079   29.1723 H   0  0  0  0  0  0  0  0  0  0  0  0
   -8.8065  -26.3815   28.1756 H   0  0  0  0  0  0  0  0  0  0  0  0
  -10.8179  -24.1470   28.1234 H   0  0  0  0  0  0  0  0  0  0  0  0
   -9.7719  -24.5380   26.8534 H   0  0  0  0  0  0  0  0  0  0  0  0
  -10.7767  -26.7625   26.5664 H   0  0  0  0  0  0  0  0  0  0  0  0
  -12.0077  -25.5260   26.4246 H   0  0  0  0  0  0  0  0  0  0  0  0
  -12.9732  -26.0748   28.5007 H   0  0  0  0  0  0  0  0  0  0  0  0
  -12.5809  -27.6038   27.8534 H   0  0  0  0  0  0  0  0  0  0  0  0
  -12.0488  -21.8918   34.3488 H   0  0  0  0  0  0  0  0  0  0  0  0
  -11.8851  -21.9558   27.9393 H   0  0  0  0  0  0  0  0  0  0  0  0
  -13.1467  -24.0508   28.3331 H   0  0  0  0  0  0  0  0  0  0  0  0
  -12.8902  -25.0219   30.7300 H   0  0  0  0  0  0  0  0  0  0  0  0
  1  2  2  0
  2  3  1  0
  3  4  1  0
  4  5  1  0
  5  6  2  0
  6  7  1  0
  7  8  2  0
  8  9  1  0
  9 10  1  0
 10 11  1  0
 11 12  1  0
 12 13  1  0
  2 14  1  0
 14 15  2  0
 15 16  1  0
 16 17  2  0
 17 18  1  0
 18 19  2  0
 19 20  1  0
 20 21  2  0
 21 22  1  0
  9  5  1  0
 22 14  1  0
 13  8  1  0
 22 17  1  0
  3 23  1  0
  4 24  1  0
  4 25  1  0
  6 26  1  0
 10 27  1  0
 10 28  1  0
 11 29  1  0
 11 30  1  0
 12 31  1  0
 12 32  1  0
 13 33  1  0
 13 34  1  0
 15 35  1  0
 19 36  1  0
 20 37  1  0
 21 38  1  0
M  END
>  <Energy>  (1102) 
30.850495520579798

>  <compound_id>  (1102) 
62279

>  <target_id>  (1102) 
1

>  <reference_id>  (1102) 
107

>  <inspiration_ids>  (1102) 
[107, 35]

>  <energy_score>  (1102) 
23.742009256035118

>  <distance_score>  (1102) 
2.9353959336485755

>  <path>  (1102) 
/opt/xchem-fragalysis-2/maxwin/BulkDock/SCRATCH/511021/C62279-P107/C62279-P107.minimised.mol

>  <scratch_subdir>  (1102) 
/opt/xchem-fragalysis-2/maxwin/BulkDock/SCRATCH/511021/C62279-P107

>  <fragmenstein_runtime>  (1102) 
4.398233413696289

>  <fragmenstein_outcome>  (1102) 
too moved

>  <fragmenstein_mode>  (1102) 
expansion

>  <fragmenstein_error>  (1102) 


$$$$
C62279-P35
     RDKit          3D

 38 41  0  0  0  0  0  0  0  0999 V2000
  -15.5226  -26.2641   30.7058 O   0  0  0  0  0  0  0  0  0  0  0  0
  -14.4502  -25.9010   30.9638 C   0  0  0  0  0  0  0  0  0  0  0  0
  -13.1749  -26.6940   31.2324 N   0  0  0  0  0  0  0  0  0  0  0  0
  -12.9170  -28.1042   31.1497 C   0  0  0  0  0  0  0  0  0  0  0  0
  -11.4999  -28.0688   30.6846 C   0  0  0  0  0  0  0  0  0  0  0  0
  -11.0391  -28.2106   29.3909 C   0  0  0  0  0  0  0  0  0  0  0  0
  -10.0596  -27.2912   29.1437 N   0  0  0  0  0  0  0  0  0  0  0  0
   -9.8775  -26.6898   30.2949 C   0  0  0  0  0  0  0  0  0  0  0  0
  -10.4832  -27.3749   31.3085 N   0  0  0  0  0  0  0  0  0  0  0  0
  -10.3385  -26.9459   32.6852 C   0  0  0  0  0  0  0  0  0  0  0  0
  -10.2379  -25.4489   32.8452 C   0  0  0  0  0  0  0  0  0  0  0  0
   -9.1076  -24.9985   31.9646 C   0  0  0  0  0  0  0  0  0  0  0  0
   -9.3669  -25.3288   30.5101 C   0  0  0  0  0  0  0  0  0  0  0  0
  -13.9990  -24.5220   31.0053 C   0  0  0  0  0  0  0  0  0  0  0  0
  -14.1211  -23.5127   31.9415 C   0  0  0  0  0  0  0  0  0  0  0  0
  -13.3055  -22.4415   31.6408 N   0  0  0  0  0  0  0  0  0  0  0  0
  -12.7187  -22.7462   30.5048 C   0  0  0  0  0  0  0  0  0  0  0  0
  -11.8711  -21.9923   29.7465 N   0  0  0  0  0  0  0  0  0  0  0  0
  -11.4685  -22.5306   28.6364 C   0  0  0  0  0  0  0  0  0  0  0  0
  -11.7926  -23.8857   28.1286 C   0  0  0  0  0  0  0  0  0  0  0  0
  -12.6319  -24.5777   28.9047 C   0  0  0  0  0  0  0  0  0  0  0  0
  -13.1156  -24.0071   30.0785 N   0  0  0  0  0  0  0  0  0  0  0  0
  -12.4009  -26.0574   31.3449 H   0  0  0  0  0  0  0  0  0  0  0  0
  -13.6068  -28.5729   30.4449 H   0  0  0  0  0  0  0  0  0  0  0  0
  -13.0020  -28.5534   32.1379 H   0  0  0  0  0  0  0  0  0  0  0  0
  -11.5150  -28.7325   28.5716 H   0  0  0  0  0  0  0  0  0  0  0  0
  -11.1195  -27.3969   33.2899 H   0  0  0  0  0  0  0  0  0  0  0  0
   -9.3712  -27.3353   33.0019 H   0  0  0  0  0  0  0  0  0  0  0  0
  -11.1528  -24.9198   32.5726 H   0  0  0  0  0  0  0  0  0  0  0  0
   -9.9864  -25.1940   33.8743 H   0  0  0  0  0  0  0  0  0  0  0  0
   -8.1908  -25.4986   32.2787 H   0  0  0  0  0  0  0  0  0  0  0  0
   -8.9807  -23.9364   32.1291 H   0  0  0  0  0  0  0  0  0  0  0  0
   -8.4835  -25.2211   29.8960 H   0  0  0  0  0  0  0  0  0  0  0  0
  -10.1102  -24.6332   30.1260 H   0  0  0  0  0  0  0  0  0  0  0  0
  -14.7201  -23.5155   32.8440 H   0  0  0  0  0  0  0  0  0  0  0  0
  -10.8030  -21.9448   27.9914 H   0  0  0  0  0  0  0  0  0  0  0  0
  -11.3700  -24.2396   27.2001 H   0  0  0  0  0  0  0  0  0  0  0  0
  -12.9633  -25.5754   28.6443 H   0  0  0  0  0  0  0  0  0  0  0  0
  1  2  2  0
  2  3  1  0
  3  4  1  0
  4  5  1  0
  5  6  2  0
  6  7  1  0
  7  8  2  0
  8  9  1  0
  9 10  1  0
 10 11  1  0
 11 12  1  0
 12 13  1  0
  2 14  1  0
 14 15  2  0
 15 16  1  0
 16 17  2  0
 17 18  1  0
 18 19  2  0
 19 20  1  0
 20 21  2  0
 21 22  1  0
  9  5  1  0
 22 14  1  0
 13  8  1  0
 22 17  1  0
  3 23  1  0
  4 24  1  0
  4 25  1  0
  6 26  1  0
 10 27  1  0
 10 28  1  0
 11 29  1  0
 11 30  1  0
 12 31  1  0
 12 32  1  0
 13 33  1  0
 13 34  1  0
 15 35  1  0
 19 36  1  0
 20 37  1  0
 21 38  1  0
M  END
>  <Energy>  (1103) 
11.529244044893016

>  <compound_id>  (1103) 
62279

>  <target_id>  (1103) 
1

>  <reference_id>  (1103) 
35

>  <inspiration_ids>  (1103) 
[107, 35]

>  <energy_score>  (1103) 
4.420757780348936

>  <distance_score>  (1103) 
2.213637829910978

>  <path>  (1103) 
/opt/xchem-fragalysis-2/maxwin/BulkDock/SCRATCH/511021/C62279-P35/C62279-P35.minimised.mol

>  <scratch_subdir>  (1103) 
/opt/xchem-fragalysis-2/maxwin/BulkDock/SCRATCH/511021/C62279-P35

>  <fragmenstein_runtime>  (1103) 
2.081726312637329

>  <fragmenstein_outcome>  (1103) 
too moved

>  <fragmenstein_mode>  (1103) 
expansion

>  <fragmenstein_error>  (1103) 


$$$$
C62280-P107
     RDKit          3D

 38 41  0  0  0  0  0  0  0  0999 V2000
  -12.4586  -25.1961   32.8043 O   0  0  0  0  0  0  0  0  0  0  0  0
  -12.5560  -25.2931   31.6184 C   0  0  0  0  0  0  0  0  0  0  0  0
  -12.0486  -26.2722   30.7226 N   0  0  0  0  0  0  0  0  0  0  0  0
  -11.1774  -27.3927   30.9431 C   0  0  0  0  0  0  0  0  0  0  0  0
   -9.9512  -26.7411   30.3459 C   0  0  0  0  0  0  0  0  0  0  0  0
   -9.9009  -26.1396   29.0809 C   0  0  0  0  0  0  0  0  0  0  0  0
  -10.1148  -24.7738   29.2803 N   0  0  0  0  0  0  0  0  0  0  0  0
   -9.9842  -24.6172   30.5948 C   0  0  0  0  0  0  0  0  0  0  0  0
   -9.3239  -25.7224   31.0250 N   0  0  0  0  0  0  0  0  0  0  0  0
   -8.5994  -25.6165   32.2450 C   0  0  0  0  0  0  0  0  0  0  0  0
   -9.5450  -25.2497   33.3477 C   0  0  0  0  0  0  0  0  0  0  0  0
   -9.9835  -23.8434   33.0119 C   0  0  0  0  0  0  0  0  0  0  0  0
  -10.3910  -23.5619   31.6102 C   0  0  0  0  0  0  0  0  0  0  0  0
  -13.2196  -24.1742   30.9219 C   0  0  0  0  0  0  0  0  0  0  0  0
  -13.6630  -23.0345   31.5881 C   0  0  0  0  0  0  0  0  0  0  0  0
  -13.2079  -21.9395   30.9296 N   0  0  0  0  0  0  0  0  0  0  0  0
  -12.6477  -22.3920   29.8299 C   0  0  0  0  0  0  0  0  0  0  0  0
  -11.9301  -21.7195   28.8996 N   0  0  0  0  0  0  0  0  0  0  0  0
  -11.7393  -22.3612   27.7878 C   0  0  0  0  0  0  0  0  0  0  0  0
  -12.2238  -23.7168   27.4370 C   0  0  0  0  0  0  0  0  0  0  0  0
  -11.9004  -24.3901   25.9136 Cl  0  0  0  0  0  0  0  0  0  0  0  0
  -12.8703  -24.3524   28.4148 C   0  0  0  0  0  0  0  0  0  0  0  0
  -12.9921  -23.7230   29.6460 N   0  0  0  0  0  0  0  0  0  0  0  0
  -12.2530  -25.9945   29.7899 H   0  0  0  0  0  0  0  0  0  0  0  0
  -11.0560  -27.6215   31.9961 H   0  0  0  0  0  0  0  0  0  0  0  0
  -11.5418  -28.2369   30.3654 H   0  0  0  0  0  0  0  0  0  0  0  0
  -10.1069  -26.5796   28.1143 H   0  0  0  0  0  0  0  0  0  0  0  0
   -7.9092  -24.7919   32.1290 H   0  0  0  0  0  0  0  0  0  0  0  0
   -7.9106  -26.4286   32.3486 H   0  0  0  0  0  0  0  0  0  0  0  0
   -9.0589  -25.2732   34.3234 H   0  0  0  0  0  0  0  0  0  0  0  0
  -10.3889  -25.9314   33.4235 H   0  0  0  0  0  0  0  0  0  0  0  0
  -10.8492  -23.5611   33.6202 H   0  0  0  0  0  0  0  0  0  0  0  0
   -9.1347  -23.1883   33.2111 H   0  0  0  0  0  0  0  0  0  0  0  0
  -10.2933  -22.4953   31.3972 H   0  0  0  0  0  0  0  0  0  0  0  0
  -11.4236  -23.4821   31.7171 H   0  0  0  0  0  0  0  0  0  0  0  0
  -14.0177  -22.9732   32.6106 H   0  0  0  0  0  0  0  0  0  0  0  0
  -11.2290  -21.8229   26.9940 H   0  0  0  0  0  0  0  0  0  0  0  0
  -13.2473  -25.3538   28.2882 H   0  0  0  0  0  0  0  0  0  0  0  0
  1  2  2  0
  2  3  1  0
  3  4  1  0
  4  5  1  0
  5  6  2  0
  6  7  1  0
  7  8  2  0
  8  9  1  0
  9 10  1  0
 10 11  1  0
 11 12  1  0
 12 13  1  0
  2 14  1  0
 14 15  2  0
 15 16  1  0
 16 17  2  0
 17 18  1  0
 18 19  2  0
 19 20  1  0
 20 21  1  0
 20 22  2  0
 22 23  1  0
  9  5  1  0
 23 14  1  0
 13  8  1  0
 23 17  1  0
  3 24  1  0
  4 25  1  0
  4 26  1  0
  6 27  1  0
 10 28  1  0
 10 29  1  0
 11 30  1  0
 11 31  1  0
 12 32  1  0
 12 33  1  0
 13 34  1  0
 13 35  1  0
 15 36  1  0
 19 37  1  0
 22 38  1  0
M  END
>  <Energy>  (1104) 
109.1019361776282

>  <compound_id>  (1104) 
62280

>  <target_id>  (1104) 
1

>  <reference_id>  (1104) 
107

>  <inspiration_ids>  (1104) 
[107, 35]

>  <energy_score>  (1104) 
106.94285726255649

>  <distance_score>  (1104) 
2.0634373026051183

>  <path>  (1104) 
/opt/xchem-fragalysis-2/maxwin/BulkDock/SCRATCH/511021/C62280-P107/C62280-P107.minimised.mol

>  <scratch_subdir>  (1104) 
/opt/xchem-fragalysis-2/maxwin/BulkDock/SCRATCH/511021/C62280-P107

>  <fragmenstein_runtime>  (1104) 
5.20484185218811

>  <fragmenstein_outcome>  (1104) 
too moved

>  <fragmenstein_mode>  (1104) 
expansion

>  <fragmenstein_error>  (1104) 


$$$$
C62280-P35
     RDKit          3D

 38 41  0  0  0  0  0  0  0  0999 V2000
  -11.9117  -26.0286   31.7857 O   0  0  0  0  0  0  0  0  0  0  0  0
  -12.7705  -25.9565   31.0202 C   0  0  0  0  0  0  0  0  0  0  0  0
  -13.3575  -27.0097   30.0985 N   0  0  0  0  0  0  0  0  0  0  0  0
  -12.9471  -28.3703   29.8487 C   0  0  0  0  0  0  0  0  0  0  0  0
  -11.5646  -28.0959   29.3066 C   0  0  0  0  0  0  0  0  0  0  0  0
  -11.1824  -27.7133   28.0358 C   0  0  0  0  0  0  0  0  0  0  0  0
  -10.2631  -26.6933   28.1170 N   0  0  0  0  0  0  0  0  0  0  0  0
   -9.9953  -26.5758   29.3986 C   0  0  0  0  0  0  0  0  0  0  0  0
  -10.4918  -27.6527   30.0490 N   0  0  0  0  0  0  0  0  0  0  0  0
  -10.1262  -27.9846   31.3799 C   0  0  0  0  0  0  0  0  0  0  0  0
   -9.3089  -26.9501   32.1640 C   0  0  0  0  0  0  0  0  0  0  0  0
   -9.2785  -25.5336   31.6211 C   0  0  0  0  0  0  0  0  0  0  0  0
   -9.3668  -25.4460   30.1079 C   0  0  0  0  0  0  0  0  0  0  0  0
  -13.3008  -24.6336   30.8471 C   0  0  0  0  0  0  0  0  0  0  0  0
  -13.5539  -23.6278   31.7673 C   0  0  0  0  0  0  0  0  0  0  0  0
  -13.0871  -22.4104   31.3183 N   0  0  0  0  0  0  0  0  0  0  0  0
  -12.5518  -22.6583   30.1451 C   0  0  0  0  0  0  0  0  0  0  0  0
  -11.8595  -21.8345   29.3105 N   0  0  0  0  0  0  0  0  0  0  0  0
  -11.5770  -22.3303   28.1405 C   0  0  0  0  0  0  0  0  0  0  0  0
  -11.9259  -23.6707   27.6253 C   0  0  0  0  0  0  0  0  0  0  0  0
  -11.6353  -24.1336   26.0204 Cl  0  0  0  0  0  0  0  0  0  0  0  0
  -12.5586  -24.4425   28.4967 C   0  0  0  0  0  0  0  0  0  0  0  0
  -12.8502  -23.9515   29.7525 N   0  0  0  0  0  0  0  0  0  0  0  0
  -14.0490  -26.5838   29.4978 H   0  0  0  0  0  0  0  0  0  0  0  0
  -12.9240  -28.9318   30.7844 H   0  0  0  0  0  0  0  0  0  0  0  0
  -13.6089  -28.8288   29.1116 H   0  0  0  0  0  0  0  0  0  0  0  0
  -11.6833  -27.9107   27.0988 H   0  0  0  0  0  0  0  0  0  0  0  0
  -11.0438  -28.2413   31.9186 H   0  0  0  0  0  0  0  0  0  0  0  0
   -9.5258  -28.8939   31.2559 H   0  0  0  0  0  0  0  0  0  0  0  0
   -8.2873  -27.3245   32.2211 H   0  0  0  0  0  0  0  0  0  0  0  0
   -9.6513  -26.9128   33.2051 H   0  0  0  0  0  0  0  0  0  0  0  0
  -10.0567  -24.9161   32.0796 H   0  0  0  0  0  0  0  0  0  0  0  0
   -8.3657  -25.0479   31.9668 H   0  0  0  0  0  0  0  0  0  0  0  0
   -8.3765  -25.3414   29.6974 H   0  0  0  0  0  0  0  0  0  0  0  0
   -9.9141  -24.5449   29.8329 H   0  0  0  0  0  0  0  0  0  0  0  0
  -13.9035  -23.7272   32.7845 H   0  0  0  0  0  0  0  0  0  0  0  0
  -11.0534  -21.6927   27.4297 H   0  0  0  0  0  0  0  0  0  0  0  0
  -12.8576  -25.4411   28.2292 H   0  0  0  0  0  0  0  0  0  0  0  0
  1  2  2  0
  2  3  1  0
  3  4  1  0
  4  5  1  0
  5  6  2  0
  6  7  1  0
  7  8  2  0
  8  9  1  0
  9 10  1  0
 10 11  1  0
 11 12  1  0
 12 13  1  0
  2 14  1  0
 14 15  2  0
 15 16  1  0
 16 17  2  0
 17 18  1  0
 18 19  2  0
 19 20  1  0
 20 21  1  0
 20 22  2  0
 22 23  1  0
  9  5  1  0
 23 14  1  0
 13  8  1  0
 23 17  1  0
  3 24  1  0
  4 25  1  0
  4 26  1  0
  6 27  1  0
 10 28  1  0
 10 29  1  0
 11 30  1  0
 11 31  1  0
 12 32  1  0
 12 33  1  0
 13 34  1  0
 13 35  1  0
 15 36  1  0
 19 37  1  0
 22 38  1  0
M  END
>  <Energy>  (1105) 
40.287352746066631

>  <compound_id>  (1105) 
62280

>  <target_id>  (1105) 
1

>  <reference_id>  (1105) 
35

>  <inspiration_ids>  (1105) 
[107, 35]

>  <energy_score>  (1105) 
39.975578142295205

>  <distance_score>  (1105) 
2.3680729676163024

>  <path>  (1105) 
/opt/xchem-fragalysis-2/maxwin/BulkDock/SCRATCH/511021/C62280-P35/C62280-P35.minimised.mol

>  <scratch_subdir>  (1105) 
/opt/xchem-fragalysis-2/maxwin/BulkDock/SCRATCH/511021/C62280-P35

>  <fragmenstein_runtime>  (1105) 
5.840637922286987

>  <fragmenstein_outcome>  (1105) 
too moved

>  <fragmenstein_mode>  (1105) 
expansion

>  <fragmenstein_error>  (1105) 


$$$$
C62281-P107
     RDKit          3D

 35 38  0  0  0  0  0  0  0  0999 V2000
  -14.9644  -21.9304   34.0935 O   0  0  0  0  0  0  0  0  0  0  0  0
  -15.2387  -21.6635   32.9599 C   0  0  0  0  0  0  0  0  0  0  0  0
  -14.5649  -21.9625   31.7443 N   0  0  0  0  0  0  0  0  0  0  0  0
  -13.4630  -22.7120   31.4984 C   0  0  0  0  0  0  0  0  0  0  0  0
  -12.6690  -23.3868   32.3889 C   0  0  0  0  0  0  0  0  0  0  0  0
  -11.8396  -24.1346   31.6012 N   0  0  0  0  0  0  0  0  0  0  0  0
  -10.9047  -25.0931   31.9524 C   0  0  0  0  0  0  0  0  0  0  0  0
  -10.2389  -25.7391   30.9874 C   0  0  0  0  0  0  0  0  0  0  0  0
  -10.5672  -25.3168   29.5987 C   0  0  0  0  0  0  0  0  0  0  0  0
  -11.4215  -24.4053   29.2461 N   0  0  0  0  0  0  0  0  0  0  0  0
  -12.0987  -23.8019   30.2714 C   0  0  0  0  0  0  0  0  0  0  0  0
  -13.0502  -22.8959   30.2080 N   0  0  0  0  0  0  0  0  0  0  0  0
  -16.4038  -20.8070   32.6724 C   0  0  0  0  0  0  0  0  0  0  0  0
  -17.4066  -20.4504   33.5536 C   0  0  0  0  0  0  0  0  0  0  0  0
  -18.2548  -19.6689   32.8321 N   0  0  0  0  0  0  0  0  0  0  0  0
  -17.7575  -19.5452   31.5595 C   0  0  0  0  0  0  0  0  0  0  0  0
  -16.6191  -20.1978   31.4388 N   0  0  0  0  0  0  0  0  0  0  0  0
  -18.4467  -18.7274   30.5194 C   0  0  0  0  0  0  0  0  0  0  0  0
  -19.8999  -18.4270   30.8954 C   0  0  0  0  0  0  0  0  0  0  0  0
  -20.0129  -17.9978   32.3592 C   0  0  0  0  0  0  0  0  0  0  0  0
  -19.5092  -19.1043   33.2853 C   0  0  0  0  0  0  0  0  0  0  0  0
  -15.1361  -21.6475   30.9630 H   0  0  0  0  0  0  0  0  0  0  0  0
  -12.6982  -23.4805   33.4658 H   0  0  0  0  0  0  0  0  0  0  0  0
  -10.7670  -25.2968   33.0062 H   0  0  0  0  0  0  0  0  0  0  0  0
   -9.5073  -26.5136   31.1655 H   0  0  0  0  0  0  0  0  0  0  0  0
  -10.0016  -25.8424   28.8111 H   0  0  0  0  0  0  0  0  0  0  0  0
  -17.5739  -20.7158   34.5884 H   0  0  0  0  0  0  0  0  0  0  0  0
  -17.8967  -17.7866   30.3978 H   0  0  0  0  0  0  0  0  0  0  0  0
  -18.4229  -19.2468   29.5560 H   0  0  0  0  0  0  0  0  0  0  0  0
  -20.2955  -17.6431   30.2399 H   0  0  0  0  0  0  0  0  0  0  0  0
  -20.5152  -19.3214   30.7333 H   0  0  0  0  0  0  0  0  0  0  0  0
  -19.4221  -17.0865   32.5157 H   0  0  0  0  0  0  0  0  0  0  0  0
  -21.0526  -17.7549   32.6046 H   0  0  0  0  0  0  0  0  0  0  0  0
  -19.3629  -18.7195   34.3000 H   0  0  0  0  0  0  0  0  0  0  0  0
  -20.2275  -19.9313   33.3225 H   0  0  0  0  0  0  0  0  0  0  0  0
  1  2  2  0
  2  3  1  0
  3  4  1  0
  4  5  2  0
  5  6  1  0
  6  7  1  0
  7  8  2  0
  8  9  1  0
  9 10  2  0
 10 11  1  0
 11 12  2  0
  2 13  1  0
 13 14  2  0
 14 15  1  0
 15 16  1  0
 16 17  2  0
 16 18  1  0
 18 19  1  0
 19 20  1  0
 20 21  1  0
 12  4  1  0
 17 13  1  0
 11  6  1  0
 21 15  1  0
  3 22  1  0
  5 23  1  0
  7 24  1  0
  8 25  1  0
  9 26  1  0
 14 27  1  0
 18 28  1  0
 18 29  1  0
 19 30  1  0
 19 31  1  0
 20 32  1  0
 20 33  1  0
 21 34  1  0
 21 35  1  0
M  END
>  <Energy>  (1106) 
10.847315504058841

>  <compound_id>  (1106) 
62281

>  <target_id>  (1106) 
1

>  <reference_id>  (1106) 
107

>  <inspiration_ids>  (1106) 
[107, 35]

>  <energy_score>  (1106) 
-40.707562619893906

>  <distance_score>  (1106) 
3.0708922327849004

>  <path>  (1106) 
/opt/xchem-fragalysis-2/maxwin/BulkDock/SCRATCH/511021/C62281-P107/C62281-P107.minimised.mol

>  <scratch_subdir>  (1106) 
/opt/xchem-fragalysis-2/maxwin/BulkDock/SCRATCH/511021/C62281-P107

>  <fragmenstein_runtime>  (1106) 
14.476479291915894

>  <fragmenstein_outcome>  (1106) 
too moved

>  <fragmenstein_mode>  (1106) 
expansion

>  <fragmenstein_error>  (1106) 


$$$$
C62281-P35
     RDKit          3D

 35 38  0  0  0  0  0  0  0  0999 V2000
  -11.6434  -22.3220   35.0735 O   0  0  0  0  0  0  0  0  0  0  0  0
  -11.2675  -21.4468   34.4055 C   0  0  0  0  0  0  0  0  0  0  0  0
  -11.2375  -21.3025   32.8840 N   0  0  0  0  0  0  0  0  0  0  0  0
  -11.5535  -22.1794   31.9179 C   0  0  0  0  0  0  0  0  0  0  0  0
  -11.6711  -23.5352   32.0306 C   0  0  0  0  0  0  0  0  0  0  0  0
  -11.8035  -23.9701   30.7466 N   0  0  0  0  0  0  0  0  0  0  0  0
  -11.8035  -25.2573   30.2370 C   0  0  0  0  0  0  0  0  0  0  0  0
  -11.8684  -25.4294   28.9101 C   0  0  0  0  0  0  0  0  0  0  0  0
  -11.9740  -24.1725   28.1139 C   0  0  0  0  0  0  0  0  0  0  0  0
  -11.9817  -22.9619   28.5767 N   0  0  0  0  0  0  0  0  0  0  0  0
  -11.8621  -22.8436   29.9279 C   0  0  0  0  0  0  0  0  0  0  0  0
  -11.6856  -21.7503   30.6362 N   0  0  0  0  0  0  0  0  0  0  0  0
  -10.6802  -20.2470   34.9559 C   0  0  0  0  0  0  0  0  0  0  0  0
  -11.2323  -19.3808   35.8651 C   0  0  0  0  0  0  0  0  0  0  0  0
  -10.2277  -18.5395   36.1909 N   0  0  0  0  0  0  0  0  0  0  0  0
   -9.2040  -18.7530   35.3118 C   0  0  0  0  0  0  0  0  0  0  0  0
   -9.4528  -19.7855   34.5442 N   0  0  0  0  0  0  0  0  0  0  0  0
   -7.9903  -17.9152   35.3162 C   0  0  0  0  0  0  0  0  0  0  0  0
   -8.2522  -16.6357   36.0989 C   0  0  0  0  0  0  0  0  0  0  0  0
   -8.8888  -16.9229   37.4586 C   0  0  0  0  0  0  0  0  0  0  0  0
  -10.2564  -17.5552   37.2475 C   0  0  0  0  0  0  0  0  0  0  0  0
  -10.9192  -20.3726   32.6393 H   0  0  0  0  0  0  0  0  0  0  0  0
  -11.5654  -24.2052   32.8674 H   0  0  0  0  0  0  0  0  0  0  0  0
  -11.7317  -26.0709   30.9478 H   0  0  0  0  0  0  0  0  0  0  0  0
  -11.8633  -26.3877   28.4129 H   0  0  0  0  0  0  0  0  0  0  0  0
  -12.0608  -24.3197   27.0242 H   0  0  0  0  0  0  0  0  0  0  0  0
  -12.1983  -19.3070   36.3159 H   0  0  0  0  0  0  0  0  0  0  0  0
   -7.1857  -18.4942   35.7670 H   0  0  0  0  0  0  0  0  0  0  0  0
   -7.6970  -17.6710   34.2898 H   0  0  0  0  0  0  0  0  0  0  0  0
   -7.3558  -16.0242   36.2105 H   0  0  0  0  0  0  0  0  0  0  0  0
   -8.9610  -16.0669   35.5016 H   0  0  0  0  0  0  0  0  0  0  0  0
   -8.2592  -17.6068   38.0370 H   0  0  0  0  0  0  0  0  0  0  0  0
   -8.9859  -16.0051   38.0472 H   0  0  0  0  0  0  0  0  0  0  0  0
  -11.0014  -16.8098   36.9566 H   0  0  0  0  0  0  0  0  0  0  0  0
  -10.5992  -18.0478   38.1637 H   0  0  0  0  0  0  0  0  0  0  0  0
  1  2  2  0
  2  3  1  0
  3  4  1  0
  4  5  2  0
  5  6  1  0
  6  7  1  0
  7  8  2  0
  8  9  1  0
  9 10  2  0
 10 11  1  0
 11 12  2  0
  2 13  1  0
 13 14  2  0
 14 15  1  0
 15 16  1  0
 16 17  2  0
 16 18  1  0
 18 19  1  0
 19 20  1  0
 20 21  1  0
 12  4  1  0
 17 13  1  0
 11  6  1  0
 21 15  1  0
  3 22  1  0
  5 23  1  0
  7 24  1  0
  8 25  1  0
  9 26  1  0
 14 27  1  0
 18 28  1  0
 18 29  1  0
 19 30  1  0
 19 31  1  0
 20 32  1  0
 20 33  1  0
 21 34  1  0
 21 35  1  0
M  END
>  <Energy>  (1107) 
32.994139762507579

>  <compound_id>  (1107) 
62281

>  <target_id>  (1107) 
1

>  <reference_id>  (1107) 
35

>  <inspiration_ids>  (1107) 
[107, 35]

>  <energy_score>  (1107) 
-48.03690205512828

>  <distance_score>  (1107) 
1.4709231116530717

>  <path>  (1107) 
/opt/xchem-fragalysis-2/maxwin/BulkDock/SCRATCH/511021/C62281-P35/C62281-P35.minimised.mol

>  <scratch_subdir>  (1107) 
/opt/xchem-fragalysis-2/maxwin/BulkDock/SCRATCH/511021/C62281-P35

>  <fragmenstein_runtime>  (1107) 
5.663050174713135

>  <fragmenstein_outcome>  (1107) 
too moved

>  <fragmenstein_mode>  (1107) 
expansion

>  <fragmenstein_error>  (1107) 


$$$$
C62282-P107
     RDKit          3D

 30 33  0  0  0  0  0  0  0  0999 V2000
  -11.9043  -19.5101   34.2772 O   0  0  0  0  0  0  0  0  0  0  0  0
  -12.9372  -20.0452   34.2418 C   0  0  0  0  0  0  0  0  0  0  0  0
  -13.3590  -21.3557   33.5534 N   0  0  0  0  0  0  0  0  0  0  0  0
  -12.6628  -22.1854   32.7328 C   0  0  0  0  0  0  0  0  0  0  0  0
  -12.6761  -23.5543   32.6742 C   0  0  0  0  0  0  0  0  0  0  0  0
  -12.1037  -23.8593   31.4640 N   0  0  0  0  0  0  0  0  0  0  0  0
  -11.7905  -25.0775   30.8791 C   0  0  0  0  0  0  0  0  0  0  0  0
  -11.3890  -25.1102   29.6003 C   0  0  0  0  0  0  0  0  0  0  0  0
  -11.3739  -23.7871   28.9137 C   0  0  0  0  0  0  0  0  0  0  0  0
  -11.6052  -22.6322   29.4586 N   0  0  0  0  0  0  0  0  0  0  0  0
  -11.9075  -22.6581   30.7926 C   0  0  0  0  0  0  0  0  0  0  0  0
  -12.0561  -21.6568   31.6299 N   0  0  0  0  0  0  0  0  0  0  0  0
  -14.1149  -19.3960   34.8431 C   0  0  0  0  0  0  0  0  0  0  0  0
  -14.1119  -18.2367   35.6160 C   0  0  0  0  0  0  0  0  0  0  0  0
  -15.4156  -18.0111   35.8779 N   0  0  0  0  0  0  0  0  0  0  0  0
  -16.1540  -18.9715   35.2722 C   0  0  0  0  0  0  0  0  0  0  0  0
  -15.4260  -19.8342   34.6213 N   0  0  0  0  0  0  0  0  0  0  0  0
  -17.8391  -18.7824   35.5268 S   0  0  0  0  0  0  0  0  0  0  0  0
  -17.5495  -17.4867   36.8020 C   0  0  0  0  0  0  0  0  0  0  0  0
  -16.1241  -16.9677   36.5808 C   0  0  0  0  0  0  0  0  0  0  0  0
  -14.3208  -21.5717   33.7962 H   0  0  0  0  0  0  0  0  0  0  0  0
  -13.0768  -24.3096   33.3326 H   0  0  0  0  0  0  0  0  0  0  0  0
  -11.8927  -25.9593   31.4953 H   0  0  0  0  0  0  0  0  0  0  0  0
  -11.1167  -26.0063   29.0640 H   0  0  0  0  0  0  0  0  0  0  0  0
  -11.1261  -23.8234   27.8397 H   0  0  0  0  0  0  0  0  0  0  0  0
  -13.2988  -17.6029   35.9456 H   0  0  0  0  0  0  0  0  0  0  0  0
  -17.6352  -17.9582   37.7867 H   0  0  0  0  0  0  0  0  0  0  0  0
  -18.2923  -16.6874   36.7313 H   0  0  0  0  0  0  0  0  0  0  0  0
  -16.1140  -16.0784   35.9418 H   0  0  0  0  0  0  0  0  0  0  0  0
  -15.6125  -16.7525   37.5230 H   0  0  0  0  0  0  0  0  0  0  0  0
  1  2  2  0
  2  3  1  0
  3  4  1  0
  4  5  2  0
  5  6  1  0
  6  7  1  0
  7  8  2  0
  8  9  1  0
  9 10  2  0
 10 11  1  0
 11 12  2  0
  2 13  1  0
 13 14  2  0
 14 15  1  0
 15 16  1  0
 16 17  2  0
 16 18  1  0
 18 19  1  0
 19 20  1  0
 12  4  1  0
 17 13  1  0
 11  6  1  0
 20 15  1  0
  3 21  1  0
  5 22  1  0
  7 23  1  0
  8 24  1  0
  9 25  1  0
 14 26  1  0
 19 27  1  0
 19 28  1  0
 20 29  1  0
 20 30  1  0
M  END
>  <Energy>  (1108) 
37.923695779768828

>  <compound_id>  (1108) 
62282

>  <target_id>  (1108) 
1

>  <reference_id>  (1108) 
107

>  <inspiration_ids>  (1108) 
[107, 35]

>  <energy_score>  (1108) 
-2.39606995470092

>  <distance_score>  (1108) 
1.8448107079723912

>  <path>  (1108) 
/opt/xchem-fragalysis-2/maxwin/BulkDock/SCRATCH/511021/C62282-P107/C62282-P107.minimised.mol

>  <scratch_subdir>  (1108) 
/opt/xchem-fragalysis-2/maxwin/BulkDock/SCRATCH/511021/C62282-P107

>  <fragmenstein_runtime>  (1108) 
7.979940891265869

>  <fragmenstein_outcome>  (1108) 
too moved

>  <fragmenstein_mode>  (1108) 
expansion

>  <fragmenstein_error>  (1108) 


$$$$
C62282-P35
     RDKit          3D

 30 33  0  0  0  0  0  0  0  0999 V2000
  -12.1034  -19.6351   34.1454 O   0  0  0  0  0  0  0  0  0  0  0  0
  -11.3247  -20.3698   34.6009 C   0  0  0  0  0  0  0  0  0  0  0  0
  -10.8695  -21.7553   34.1279 N   0  0  0  0  0  0  0  0  0  0  0  0
  -11.1868  -22.4536   33.0058 C   0  0  0  0  0  0  0  0  0  0  0  0
  -10.7726  -23.7285   32.7181 C   0  0  0  0  0  0  0  0  0  0  0  0
  -11.2189  -23.9661   31.4470 N   0  0  0  0  0  0  0  0  0  0  0  0
  -11.0148  -25.0678   30.6279 C   0  0  0  0  0  0  0  0  0  0  0  0
  -11.4244  -25.0182   29.3533 C   0  0  0  0  0  0  0  0  0  0  0  0
  -12.0721  -23.7368   28.9509 C   0  0  0  0  0  0  0  0  0  0  0  0
  -12.2929  -22.7070   29.7090 N   0  0  0  0  0  0  0  0  0  0  0  0
  -11.8672  -22.8138   31.0049 C   0  0  0  0  0  0  0  0  0  0  0  0
  -11.8975  -21.9158   31.9690 N   0  0  0  0  0  0  0  0  0  0  0  0
  -10.5282  -19.9653   35.7675 C   0  0  0  0  0  0  0  0  0  0  0  0
  -10.4912  -18.6777   36.2971 C   0  0  0  0  0  0  0  0  0  0  0  0
   -9.6635  -18.7796   37.3530 N   0  0  0  0  0  0  0  0  0  0  0  0
   -9.2437  -20.0627   37.4571 C   0  0  0  0  0  0  0  0  0  0  0  0
   -9.7221  -20.8327   36.5173 N   0  0  0  0  0  0  0  0  0  0  0  0
   -8.2949  -20.3367   38.8623 S   0  0  0  0  0  0  0  0  0  0  0  0
   -8.7023  -18.6730   39.5282 C   0  0  0  0  0  0  0  0  0  0  0  0
   -9.2160  -17.8402   38.3505 C   0  0  0  0  0  0  0  0  0  0  0  0
  -10.1119  -22.0825   34.7185 H   0  0  0  0  0  0  0  0  0  0  0  0
  -10.1928  -24.4522   33.2704 H   0  0  0  0  0  0  0  0  0  0  0  0
  -10.5042  -25.9194   31.0591 H   0  0  0  0  0  0  0  0  0  0  0  0
  -11.3011  -25.8137   28.6341 H   0  0  0  0  0  0  0  0  0  0  0  0
  -12.3854  -23.6896   27.8944 H   0  0  0  0  0  0  0  0  0  0  0  0
  -10.9767  -17.7643   35.9779 H   0  0  0  0  0  0  0  0  0  0  0  0
   -9.4901  -18.7959   40.2792 H   0  0  0  0  0  0  0  0  0  0  0  0
   -7.8343  -18.2130   40.0083 H   0  0  0  0  0  0  0  0  0  0  0  0
   -8.4239  -17.2347   37.9003 H   0  0  0  0  0  0  0  0  0  0  0  0
  -10.0489  -17.1930   38.6401 H   0  0  0  0  0  0  0  0  0  0  0  0
  1  2  2  0
  2  3  1  0
  3  4  1  0
  4  5  2  0
  5  6  1  0
  6  7  1  0
  7  8  2  0
  8  9  1  0
  9 10  2  0
 10 11  1  0
 11 12  2  0
  2 13  1  0
 13 14  2  0
 14 15  1  0
 15 16  1  0
 16 17  2  0
 16 18  1  0
 18 19  1  0
 19 20  1  0
 12  4  1  0
 17 13  1  0
 11  6  1  0
 20 15  1  0
  3 21  1  0
  5 22  1  0
  7 23  1  0
  8 24  1  0
  9 25  1  0
 14 26  1  0
 19 27  1  0
 19 28  1  0
 20 29  1  0
 20 30  1  0
M  END
>  <Energy>  (1109) 
23.180678934923343

>  <compound_id>  (1109) 
62282

>  <target_id>  (1109) 
1

>  <reference_id>  (1109) 
35

>  <inspiration_ids>  (1109) 
[107, 35]

>  <energy_score>  (1109) 
-17.139086799547442

>  <distance_score>  (1109) 
0.890778174167749

>  <path>  (1109) 
/opt/xchem-fragalysis-2/maxwin/BulkDock/SCRATCH/511021/C62282-P35/C62282-P35.minimised.mol

>  <scratch_subdir>  (1109) 
/opt/xchem-fragalysis-2/maxwin/BulkDock/SCRATCH/511021/C62282-P35

>  <fragmenstein_runtime>  (1109) 
6.195585489273071

>  <fragmenstein_outcome>  (1109) 
acceptable

>  <fragmenstein_mode>  (1109) 
expansion

>  <fragmenstein_error>  (1109) 


$$$$
C62283-P107
     RDKit          3D

 32 35  0  0  0  0  0  0  0  0999 V2000
  -14.7738  -22.2092   33.9642 O   0  0  0  0  0  0  0  0  0  0  0  0
  -13.9026  -21.4258   33.7269 C   0  0  0  0  0  0  0  0  0  0  0  0
  -12.7555  -21.5307   32.8752 N   0  0  0  0  0  0  0  0  0  0  0  0
  -12.3703  -22.5038   32.0265 C   0  0  0  0  0  0  0  0  0  0  0  0
  -12.4654  -23.8587   32.1656 C   0  0  0  0  0  0  0  0  0  0  0  0
  -11.9331  -24.3535   31.0085 N   0  0  0  0  0  0  0  0  0  0  0  0
  -11.5922  -25.6473   30.6480 C   0  0  0  0  0  0  0  0  0  0  0  0
  -11.1088  -25.8821   29.4212 C   0  0  0  0  0  0  0  0  0  0  0  0
  -11.0398  -24.6865   28.5354 C   0  0  0  0  0  0  0  0  0  0  0  0
  -11.3222  -23.4627   28.8607 N   0  0  0  0  0  0  0  0  0  0  0  0
  -11.7116  -23.2717   30.1582 C   0  0  0  0  0  0  0  0  0  0  0  0
  -11.8200  -22.1441   30.8312 N   0  0  0  0  0  0  0  0  0  0  0  0
  -13.9732  -20.0629   34.3333 C   0  0  0  0  0  0  0  0  0  0  0  0
  -12.9010  -19.2823   34.7687 C   0  0  0  0  0  0  0  0  0  0  0  0
  -13.4740  -18.1670   35.2421 N   0  0  0  0  0  0  0  0  0  0  0  0
  -14.8210  -18.2513   35.1171 C   0  0  0  0  0  0  0  0  0  0  0  0
  -15.1764  -19.3681   34.5409 N   0  0  0  0  0  0  0  0  0  0  0  0
  -15.4807  -17.0185   35.5850 C   0  0  0  0  0  0  0  0  0  0  0  0
  -14.2871  -16.0290   35.6191 C   0  0  0  0  0  0  0  0  0  0  0  0
  -13.0186  -16.8950   35.7489 C   0  0  0  0  0  0  0  0  0  0  0  0
  -12.2811  -20.6452   32.8531 H   0  0  0  0  0  0  0  0  0  0  0  0
  -12.8300  -24.4840   32.9673 H   0  0  0  0  0  0  0  0  0  0  0  0
  -11.7075  -26.4138   31.4004 H   0  0  0  0  0  0  0  0  0  0  0  0
  -10.7869  -26.8473   29.0615 H   0  0  0  0  0  0  0  0  0  0  0  0
  -10.7109  -24.8937   27.5035 H   0  0  0  0  0  0  0  0  0  0  0  0
  -11.8344  -19.4390   34.7617 H   0  0  0  0  0  0  0  0  0  0  0  0
  -15.8956  -17.1614   36.5876 H   0  0  0  0  0  0  0  0  0  0  0  0
  -16.2675  -16.6742   34.9092 H   0  0  0  0  0  0  0  0  0  0  0  0
  -14.3771  -15.2912   36.4219 H   0  0  0  0  0  0  0  0  0  0  0  0
  -14.2495  -15.4779   34.6699 H   0  0  0  0  0  0  0  0  0  0  0  0
  -12.7163  -17.0374   36.7901 H   0  0  0  0  0  0  0  0  0  0  0  0
  -12.1902  -16.5345   35.1361 H   0  0  0  0  0  0  0  0  0  0  0  0
  1  2  2  0
  2  3  1  0
  3  4  1  0
  4  5  2  0
  5  6  1  0
  6  7  1  0
  7  8  2  0
  8  9  1  0
  9 10  2  0
 10 11  1  0
 11 12  2  0
  2 13  1  0
 13 14  2  0
 14 15  1  0
 15 16  1  0
 16 17  2  0
 16 18  1  0
 18 19  1  0
 19 20  1  0
 12  4  1  0
 17 13  1  0
 11  6  1  0
 20 15  1  0
  3 21  1  0
  5 22  1  0
  7 23  1  0
  8 24  1  0
  9 25  1  0
 14 26  1  0
 18 27  1  0
 18 28  1  0
 19 29  1  0
 19 30  1  0
 20 31  1  0
 20 32  1  0
M  END
>  <Energy>  (1110) 
40.619108498993981

>  <compound_id>  (1110) 
62283

>  <target_id>  (1110) 
1

>  <reference_id>  (1110) 
107

>  <inspiration_ids>  (1110) 
[107, 35]

>  <energy_score>  (1110) 
-21.388601585632216

>  <distance_score>  (1110) 
2.148372114073139

>  <path>  (1110) 
/opt/xchem-fragalysis-2/maxwin/BulkDock/SCRATCH/511021/C62283-P107/C62283-P107.minimised.mol

>  <scratch_subdir>  (1110) 
/opt/xchem-fragalysis-2/maxwin/BulkDock/SCRATCH/511021/C62283-P107

>  <fragmenstein_runtime>  (1110) 
7.740453720092773

>  <fragmenstein_outcome>  (1110) 
too moved

>  <fragmenstein_mode>  (1110) 
expansion

>  <fragmenstein_error>  (1110) 


$$$$
C62283-P35
     RDKit          3D

 32 35  0  0  0  0  0  0  0  0999 V2000
  -10.1076  -22.9121   35.3019 O   0  0  0  0  0  0  0  0  0  0  0  0
  -10.3700  -21.8745   34.8396 C   0  0  0  0  0  0  0  0  0  0  0  0
  -11.0146  -21.5183   33.4848 N   0  0  0  0  0  0  0  0  0  0  0  0
  -11.3612  -22.3057   32.4448 C   0  0  0  0  0  0  0  0  0  0  0  0
  -11.2438  -23.6657   32.3585 C   0  0  0  0  0  0  0  0  0  0  0  0
  -11.5437  -23.9568   31.0601 N   0  0  0  0  0  0  0  0  0  0  0  0
  -11.4569  -25.1585   30.3757 C   0  0  0  0  0  0  0  0  0  0  0  0
  -11.6885  -25.1740   29.0563 C   0  0  0  0  0  0  0  0  0  0  0  0
  -12.0440  -23.8529   28.4626 C   0  0  0  0  0  0  0  0  0  0  0  0
  -12.1477  -22.7229   29.0918 N   0  0  0  0  0  0  0  0  0  0  0  0
  -11.8796  -22.7591   30.4295 C   0  0  0  0  0  0  0  0  0  0  0  0
  -11.7828  -21.7530   31.2744 N   0  0  0  0  0  0  0  0  0  0  0  0
   -9.9783  -20.6409   35.5555 C   0  0  0  0  0  0  0  0  0  0  0  0
   -9.6751  -19.4016   34.9963 C   0  0  0  0  0  0  0  0  0  0  0  0
   -9.3227  -18.6493   36.0473 N   0  0  0  0  0  0  0  0  0  0  0  0
   -9.4100  -19.3736   37.1881 C   0  0  0  0  0  0  0  0  0  0  0  0
   -9.7834  -20.5996   36.9466 N   0  0  0  0  0  0  0  0  0  0  0  0
   -9.0664  -18.5635   38.3680 C   0  0  0  0  0  0  0  0  0  0  0  0
   -9.1077  -17.1287   37.7781 C   0  0  0  0  0  0  0  0  0  0  0  0
   -8.9202  -17.2811   36.2556 C   0  0  0  0  0  0  0  0  0  0  0  0
  -11.0230  -20.5177   33.3690 H   0  0  0  0  0  0  0  0  0  0  0  0
  -10.9107  -24.4146   33.0623 H   0  0  0  0  0  0  0  0  0  0  0  0
  -11.1797  -26.0349   30.9478 H   0  0  0  0  0  0  0  0  0  0  0  0
  -11.6338  -26.0531   28.4320 H   0  0  0  0  0  0  0  0  0  0  0  0
  -12.2393  -23.8701   27.3769 H   0  0  0  0  0  0  0  0  0  0  0  0
   -9.6437  -19.0369   33.9816 H   0  0  0  0  0  0  0  0  0  0  0  0
   -9.7861  -18.6794   39.1827 H   0  0  0  0  0  0  0  0  0  0  0  0
   -8.0667  -18.8139   38.7326 H   0  0  0  0  0  0  0  0  0  0  0  0
  -10.0964  -16.6955   37.9772 H   0  0  0  0  0  0  0  0  0  0  0  0
   -8.3652  -16.4645   38.2304 H   0  0  0  0  0  0  0  0  0  0  0  0
   -7.8781  -17.1839   35.9452 H   0  0  0  0  0  0  0  0  0  0  0  0
   -9.5674  -16.6275   35.6695 H   0  0  0  0  0  0  0  0  0  0  0  0
  1  2  2  0
  2  3  1  0
  3  4  1  0
  4  5  2  0
  5  6  1  0
  6  7  1  0
  7  8  2  0
  8  9  1  0
  9 10  2  0
 10 11  1  0
 11 12  2  0
  2 13  1  0
 13 14  2  0
 14 15  1  0
 15 16  1  0
 16 17  2  0
 16 18  1  0
 18 19  1  0
 19 20  1  0
 12  4  1  0
 17 13  1  0
 11  6  1  0
 20 15  1  0
  3 21  1  0
  5 22  1  0
  7 23  1  0
  8 24  1  0
  9 25  1  0
 14 26  1  0
 18 27  1  0
 18 28  1  0
 19 29  1  0
 19 30  1  0
 20 31  1  0
 20 32  1  0
M  END
>  <Energy>  (1111) 
40.957729271977236

>  <compound_id>  (1111) 
62283

>  <target_id>  (1111) 
1

>  <reference_id>  (1111) 
35

>  <inspiration_ids>  (1111) 
[107, 35]

>  <energy_score>  (1111) 
-23.171069720364585

>  <distance_score>  (1111) 
1.2923571239783807

>  <path>  (1111) 
/opt/xchem-fragalysis-2/maxwin/BulkDock/SCRATCH/511021/C62283-P35/C62283-P35.minimised.mol

>  <scratch_subdir>  (1111) 
/opt/xchem-fragalysis-2/maxwin/BulkDock/SCRATCH/511021/C62283-P35

>  <fragmenstein_runtime>  (1111) 
10.876510858535767

>  <fragmenstein_outcome>  (1111) 
too moved

>  <fragmenstein_mode>  (1111) 
expansion

>  <fragmenstein_error>  (1111) 


$$$$
C62284-P107
     RDKit          3D

 35 38  0  0  0  0  0  0  0  0999 V2000
  -15.6343  -20.5658   31.4256 O   0  0  0  0  0  0  0  0  0  0  0  0
  -15.4604  -21.1415   32.4596 C   0  0  0  0  0  0  0  0  0  0  0  0
  -14.4469  -22.0688   32.8553 N   0  0  0  0  0  0  0  0  0  0  0  0
  -13.4339  -22.6400   32.1482 C   0  0  0  0  0  0  0  0  0  0  0  0
  -12.6143  -23.6372   32.6192 C   0  0  0  0  0  0  0  0  0  0  0  0
  -11.9620  -24.0981   31.5075 N   0  0  0  0  0  0  0  0  0  0  0  0
  -11.1154  -25.1867   31.3557 C   0  0  0  0  0  0  0  0  0  0  0  0
  -10.6518  -25.4892   30.1358 C   0  0  0  0  0  0  0  0  0  0  0  0
  -11.0891  -24.5657   29.0501 C   0  0  0  0  0  0  0  0  0  0  0  0
  -11.8542  -23.5253   29.1767 N   0  0  0  0  0  0  0  0  0  0  0  0
  -12.3292  -23.2848   30.4371 C   0  0  0  0  0  0  0  0  0  0  0  0
  -13.1702  -22.3566   30.8421 N   0  0  0  0  0  0  0  0  0  0  0  0
  -16.4176  -20.9615   33.5227 C   0  0  0  0  0  0  0  0  0  0  0  0
  -16.3354  -20.2290   34.6864 C   0  0  0  0  0  0  0  0  0  0  0  0
  -17.4927  -20.3253   35.4174 N   0  0  0  0  0  0  0  0  0  0  0  0
  -18.3014  -21.0731   34.6946 C   0  0  0  0  0  0  0  0  0  0  0  0
  -17.6893  -21.4691   33.5322 N   0  0  0  0  0  0  0  0  0  0  0  0
  -18.3216  -22.2500   32.4855 C   0  0  0  0  0  0  0  0  0  0  0  0
  -19.6012  -22.9355   32.9658 C   0  0  0  0  0  0  0  0  0  0  0  0
  -20.4544  -21.9784   33.8008 C   0  0  0  0  0  0  0  0  0  0  0  0
  -19.6878  -21.5002   35.0365 C   0  0  0  0  0  0  0  0  0  0  0  0
  -14.6619  -22.4178   33.7788 H   0  0  0  0  0  0  0  0  0  0  0  0
  -12.5348  -24.1251   33.5796 H   0  0  0  0  0  0  0  0  0  0  0  0
  -10.8761  -25.7661   32.2385 H   0  0  0  0  0  0  0  0  0  0  0  0
  -10.0003  -26.3229   29.9184 H   0  0  0  0  0  0  0  0  0  0  0  0
  -10.6910  -24.8073   28.0503 H   0  0  0  0  0  0  0  0  0  0  0  0
  -15.5024  -19.6325   35.0343 H   0  0  0  0  0  0  0  0  0  0  0  0
  -18.5428  -21.5537   31.6685 H   0  0  0  0  0  0  0  0  0  0  0  0
  -17.6047  -22.9960   32.1320 H   0  0  0  0  0  0  0  0  0  0  0  0
  -20.1709  -23.2994   32.1038 H   0  0  0  0  0  0  0  0  0  0  0  0
  -19.3427  -23.8116   33.5740 H   0  0  0  0  0  0  0  0  0  0  0  0
  -20.7396  -21.1162   33.1845 H   0  0  0  0  0  0  0  0  0  0  0  0
  -21.3816  -22.4730   34.1110 H   0  0  0  0  0  0  0  0  0  0  0  0
  -20.2287  -20.6731   35.5092 H   0  0  0  0  0  0  0  0  0  0  0  0
  -19.6299  -22.3132   35.7701 H   0  0  0  0  0  0  0  0  0  0  0  0
  1  2  2  0
  2  3  1  0
  3  4  1  0
  4  5  2  0
  5  6  1  0
  6  7  1  0
  7  8  2  0
  8  9  1  0
  9 10  2  0
 10 11  1  0
 11 12  2  0
  2 13  1  0
 13 14  2  0
 14 15  1  0
 15 16  2  0
 16 17  1  0
 17 18  1  0
 18 19  1  0
 19 20  1  0
 20 21  1  0
 12  4  1  0
 17 13  1  0
 11  6  1  0
 21 16  1  0
  3 22  1  0
  5 23  1  0
  7 24  1  0
  8 25  1  0
  9 26  1  0
 14 27  1  0
 18 28  1  0
 18 29  1  0
 19 30  1  0
 19 31  1  0
 20 32  1  0
 20 33  1  0
 21 34  1  0
 21 35  1  0
M  END
>  <Energy>  (1112) 
-16.814533575730056

>  <compound_id>  (1112) 
62284

>  <target_id>  (1112) 
1

>  <reference_id>  (1112) 
107

>  <inspiration_ids>  (1112) 
[107, 35]

>  <energy_score>  (1112) 
-43.961226800010024

>  <distance_score>  (1112) 
2.7344557442674366

>  <path>  (1112) 
/opt/xchem-fragalysis-2/maxwin/BulkDock/SCRATCH/511021/C62284-P107/C62284-P107.minimised.mol

>  <scratch_subdir>  (1112) 
/opt/xchem-fragalysis-2/maxwin/BulkDock/SCRATCH/511021/C62284-P107

>  <fragmenstein_runtime>  (1112) 
9.70236587524414

>  <fragmenstein_outcome>  (1112) 
too moved

>  <fragmenstein_mode>  (1112) 
expansion

>  <fragmenstein_error>  (1112) 


$$$$
C62284-P35
     RDKit          3D

 35 38  0  0  0  0  0  0  0  0999 V2000
  -11.7220  -19.8822   33.9339 O   0  0  0  0  0  0  0  0  0  0  0  0
  -11.1450  -20.7963   34.3639 C   0  0  0  0  0  0  0  0  0  0  0  0
  -10.9433  -22.2087   33.7883 N   0  0  0  0  0  0  0  0  0  0  0  0
  -11.3065  -22.7317   32.5937 C   0  0  0  0  0  0  0  0  0  0  0  0
  -11.0501  -24.0284   32.2326 C   0  0  0  0  0  0  0  0  0  0  0  0
  -11.4158  -24.1009   30.9218 N   0  0  0  0  0  0  0  0  0  0  0  0
  -11.2701  -25.1477   30.0253 C   0  0  0  0  0  0  0  0  0  0  0  0
  -11.5634  -24.9433   28.7350 C   0  0  0  0  0  0  0  0  0  0  0  0
  -12.0297  -23.5655   28.4075 C   0  0  0  0  0  0  0  0  0  0  0  0
  -12.1978  -22.5854   29.2413 N   0  0  0  0  0  0  0  0  0  0  0  0
  -11.8874  -22.8446   30.5455 C   0  0  0  0  0  0  0  0  0  0  0  0
  -11.8664  -22.0223   31.5759 N   0  0  0  0  0  0  0  0  0  0  0  0
  -10.4214  -20.6581   35.6283 C   0  0  0  0  0  0  0  0  0  0  0  0
   -9.7040  -21.5747   36.3728 C   0  0  0  0  0  0  0  0  0  0  0  0
   -9.1397  -21.0242   37.4905 N   0  0  0  0  0  0  0  0  0  0  0  0
   -9.5047  -19.7651   37.4719 C   0  0  0  0  0  0  0  0  0  0  0  0
  -10.3229  -19.5115   36.3911 N   0  0  0  0  0  0  0  0  0  0  0  0
  -11.0616  -18.2695   36.2359 C   0  0  0  0  0  0  0  0  0  0  0  0
  -11.2146  -17.5775   37.5898 C   0  0  0  0  0  0  0  0  0  0  0  0
   -9.8456  -17.4001   38.2382 C   0  0  0  0  0  0  0  0  0  0  0  0
   -9.2316  -18.7631   38.5423 C   0  0  0  0  0  0  0  0  0  0  0  0
  -10.3228  -22.7262   34.3813 H   0  0  0  0  0  0  0  0  0  0  0  0
  -10.6133  -24.8636   32.7590 H   0  0  0  0  0  0  0  0  0  0  0  0
  -10.8975  -26.0880   30.4109 H   0  0  0  0  0  0  0  0  0  0  0  0
  -11.4736  -25.6840   27.9547 H   0  0  0  0  0  0  0  0  0  0  0  0
  -12.2496  -23.3940   27.3402 H   0  0  0  0  0  0  0  0  0  0  0  0
   -9.5506  -22.6228   36.1688 H   0  0  0  0  0  0  0  0  0  0  0  0
  -10.5083  -17.6515   35.5213 H   0  0  0  0  0  0  0  0  0  0  0  0
  -12.0559  -18.4918   35.8412 H   0  0  0  0  0  0  0  0  0  0  0  0
  -11.7082  -16.6198   37.4636 H   0  0  0  0  0  0  0  0  0  0  0  0
  -11.8595  -18.1699   38.2506 H   0  0  0  0  0  0  0  0  0  0  0  0
   -9.1895  -16.8390   37.5611 H   0  0  0  0  0  0  0  0  0  0  0  0
   -9.9293  -16.8152   39.1608 H   0  0  0  0  0  0  0  0  0  0  0  0
   -8.1541  -18.6644   38.7026 H   0  0  0  0  0  0  0  0  0  0  0  0
   -9.6584  -19.1460   39.4780 H   0  0  0  0  0  0  0  0  0  0  0  0
  1  2  2  0
  2  3  1  0
  3  4  1  0
  4  5  2  0
  5  6  1  0
  6  7  1  0
  7  8  2  0
  8  9  1  0
  9 10  2  0
 10 11  1  0
 11 12  2  0
  2 13  1  0
 13 14  2  0
 14 15  1  0
 15 16  2  0
 16 17  1  0
 17 18  1  0
 18 19  1  0
 19 20  1  0
 20 21  1  0
 12  4  1  0
 17 13  1  0
 11  6  1  0
 21 16  1  0
  3 22  1  0
  5 23  1  0
  7 24  1  0
  8 25  1  0
  9 26  1  0
 14 27  1  0
 18 28  1  0
 18 29  1  0
 19 30  1  0
 19 31  1  0
 20 32  1  0
 20 33  1  0
 21 34  1  0
 21 35  1  0
M  END
>  <Energy>  (1113) 
-8.8908260539280874

>  <compound_id>  (1113) 
62284

>  <target_id>  (1113) 
1

>  <reference_id>  (1113) 
35

>  <inspiration_ids>  (1113) 
[107, 35]

>  <energy_score>  (1113) 
-13.509099355381977

>  <distance_score>  (1113) 
0.9167379666914761

>  <path>  (1113) 
/opt/xchem-fragalysis-2/maxwin/BulkDock/SCRATCH/511021/C62284-P35/C62284-P35.minimised.mol

>  <scratch_subdir>  (1113) 
/opt/xchem-fragalysis-2/maxwin/BulkDock/SCRATCH/511021/C62284-P35

>  <fragmenstein_runtime>  (1113) 
6.961087703704834

>  <fragmenstein_outcome>  (1113) 
acceptable

>  <fragmenstein_mode>  (1113) 
expansion

>  <fragmenstein_error>  (1113) 


$$$$
C62285-P107
     RDKit          3D

 40 43  0  0  0  0  0  0  0  0999 V2000
  -14.3787  -23.8806   29.1587 O   0  0  0  0  0  0  0  0  0  0  0  0
  -13.6635  -23.4163   29.9985 C   0  0  0  0  0  0  0  0  0  0  0  0
  -13.9313  -22.4466   31.0375 N   0  0  0  0  0  0  0  0  0  0  0  0
  -15.1485  -21.6446   31.3347 C   0  0  0  0  0  0  0  0  0  0  0  0
  -16.4285  -22.1291   32.0943 C   0  0  0  0  0  0  0  0  0  0  0  0
  -16.6185  -21.4670   33.4505 C   0  0  0  0  0  0  0  0  0  0  0  0
  -17.7199  -21.2034   33.9199 O   0  0  0  0  0  0  0  0  0  0  0  0
  -15.3865  -21.1224   34.0702 C   0  0  0  0  0  0  0  0  0  0  0  0
  -14.9550  -19.8805   34.4687 C   0  0  0  0  0  0  0  0  0  0  0  0
  -13.5923  -19.8105   34.3429 N   0  0  0  0  0  0  0  0  0  0  0  0
  -13.2018  -21.0030   33.9260 C   0  0  0  0  0  0  0  0  0  0  0  0
  -12.0031  -21.4280   33.4627 N   0  0  0  0  0  0  0  0  0  0  0  0
  -11.8441  -22.7169   33.3998 C   0  0  0  0  0  0  0  0  0  0  0  0
  -12.8755  -23.7563   33.6292 C   0  0  0  0  0  0  0  0  0  0  0  0
  -14.0945  -23.2740   33.8894 C   0  0  0  0  0  0  0  0  0  0  0  0
  -14.2593  -21.8992   34.0053 N   0  0  0  0  0  0  0  0  0  0  0  0
  -12.3082  -23.9481   29.9745 C   0  0  0  0  0  0  0  0  0  0  0  0
  -11.8511  -24.7834   28.9561 C   0  0  0  0  0  0  0  0  0  0  0  0
  -10.8103  -25.4083   29.5162 N   0  0  0  0  0  0  0  0  0  0  0  0
  -10.6250  -24.9185   30.7679 C   0  0  0  0  0  0  0  0  0  0  0  0
  -11.4325  -23.9306   31.0316 N   0  0  0  0  0  0  0  0  0  0  0  0
   -9.8044  -25.8188   31.5791 C   0  0  0  0  0  0  0  0  0  0  0  0
  -10.0080  -27.1403   30.7973 C   0  0  0  0  0  0  0  0  0  0  0  0
  -10.2769  -26.7372   29.3428 C   0  0  0  0  0  0  0  0  0  0  0  0
  -13.0652  -22.2261   31.5146 H   0  0  0  0  0  0  0  0  0  0  0  0
  -15.4585  -21.2121   30.4163 H   0  0  0  0  0  0  0  0  0  0  0  0
  -14.7896  -20.7481   31.8215 H   0  0  0  0  0  0  0  0  0  0  0  0
  -16.5054  -23.1885   32.2792 H   0  0  0  0  0  0  0  0  0  0  0  0
  -17.3102  -21.8275   31.5140 H   0  0  0  0  0  0  0  0  0  0  0  0
  -15.5486  -19.0013   34.6846 H   0  0  0  0  0  0  0  0  0  0  0  0
  -10.8578  -23.1030   33.1032 H   0  0  0  0  0  0  0  0  0  0  0  0
  -12.6277  -24.7963   33.5064 H   0  0  0  0  0  0  0  0  0  0  0  0
  -14.9637  -23.9039   34.0126 H   0  0  0  0  0  0  0  0  0  0  0  0
  -12.3113  -25.0833   28.0253 H   0  0  0  0  0  0  0  0  0  0  0  0
  -10.1791  -25.8794   32.6036 H   0  0  0  0  0  0  0  0  0  0  0  0
   -8.7583  -25.5053   31.5840 H   0  0  0  0  0  0  0  0  0  0  0  0
   -9.1595  -27.8167   30.8876 H   0  0  0  0  0  0  0  0  0  0  0  0
  -10.8878  -27.6627   31.1967 H   0  0  0  0  0  0  0  0  0  0  0  0
  -11.0318  -27.3624   28.8605 H   0  0  0  0  0  0  0  0  0  0  0  0
   -9.3849  -26.6473   28.7218 H   0  0  0  0  0  0  0  0  0  0  0  0
  1  2  2  0
  2  3  1  0
  3  4  1  0
  4  5  1  0
  5  6  1  0
  6  7  2  0
  6  8  1  0
  8  9  2  0
  9 10  1  0
 10 11  2  0
 11 12  1  0
 12 13  2  0
 13 14  1  0
 14 15  2  0
 15 16  1  0
  2 17  1  0
 17 18  2  0
 18 19  1  0
 19 20  1  0
 20 21  2  0
 20 22  1  0
 22 23  1  0
 23 24  1  0
 16  8  1  0
 21 17  1  0
 16 11  1  0
 24 19  1  0
  3 25  1  0
  4 26  1  0
  4 27  1  0
  5 28  1  0
  5 29  1  0
  9 30  1  0
 13 31  1  0
 14 32  1  0
 15 33  1  0
 18 34  1  0
 22 35  1  0
 22 36  1  0
 23 37  1  0
 23 38  1  0
 24 39  1  0
 24 40  1  0
M  END
>  <Energy>  (1114) 
91.448530808972052

>  <compound_id>  (1114) 
62285

>  <target_id>  (1114) 
1

>  <reference_id>  (1114) 
107

>  <inspiration_ids>  (1114) 
[107, 35]

>  <energy_score>  (1114) 
17.213423097789416

>  <distance_score>  (1114) 
4.561004206281658

>  <path>  (1114) 
/opt/xchem-fragalysis-2/maxwin/BulkDock/SCRATCH/511021/C62285-P107/C62285-P107.minimised.mol

>  <scratch_subdir>  (1114) 
/opt/xchem-fragalysis-2/maxwin/BulkDock/SCRATCH/511021/C62285-P107

>  <fragmenstein_runtime>  (1114) 
8.102455615997314

>  <fragmenstein_outcome>  (1114) 
too moved

>  <fragmenstein_mode>  (1114) 
expansion

>  <fragmenstein_error>  (1114) 


$$$$
C62285-P35
     RDKit          3D

 40 43  0  0  0  0  0  0  0  0999 V2000
  -13.9433  -28.8855   29.5576 O   0  0  0  0  0  0  0  0  0  0  0  0
  -13.5042  -28.1427   30.3405 C   0  0  0  0  0  0  0  0  0  0  0  0
  -14.2139  -27.1449   31.2810 N   0  0  0  0  0  0  0  0  0  0  0  0
  -15.5994  -26.7872   31.3857 C   0  0  0  0  0  0  0  0  0  0  0  0
  -15.8149  -25.3640   30.9066 C   0  0  0  0  0  0  0  0  0  0  0  0
  -15.1991  -24.3637   31.8679 C   0  0  0  0  0  0  0  0  0  0  0  0
  -15.8264  -24.1634   32.9117 O   0  0  0  0  0  0  0  0  0  0  0  0
  -13.9515  -23.6573   31.5963 C   0  0  0  0  0  0  0  0  0  0  0  0
  -13.4039  -22.6770   32.4129 C   0  0  0  0  0  0  0  0  0  0  0  0
  -12.3934  -21.9975   31.7970 N   0  0  0  0  0  0  0  0  0  0  0  0
  -12.3105  -22.5192   30.5963 C   0  0  0  0  0  0  0  0  0  0  0  0
  -11.5974  -22.0629   29.5276 N   0  0  0  0  0  0  0  0  0  0  0  0
  -11.5859  -22.8261   28.4803 C   0  0  0  0  0  0  0  0  0  0  0  0
  -12.2336  -24.1492   28.3529 C   0  0  0  0  0  0  0  0  0  0  0  0
  -13.0100  -24.4902   29.3880 C   0  0  0  0  0  0  0  0  0  0  0  0
  -13.1134  -23.6592   30.4964 N   0  0  0  0  0  0  0  0  0  0  0  0
  -12.0687  -27.9167   30.5397 C   0  0  0  0  0  0  0  0  0  0  0  0
  -11.4227  -28.0643   31.7617 C   0  0  0  0  0  0  0  0  0  0  0  0
  -10.3541  -27.2446   31.6829 N   0  0  0  0  0  0  0  0  0  0  0  0
  -10.3884  -26.6278   30.4715 C   0  0  0  0  0  0  0  0  0  0  0  0
  -11.3542  -27.0635   29.7109 N   0  0  0  0  0  0  0  0  0  0  0  0
   -9.5923  -25.3997   30.4963 C   0  0  0  0  0  0  0  0  0  0  0  0
   -9.5740  -25.1000   31.9999 C   0  0  0  0  0  0  0  0  0  0  0  0
   -9.5907  -26.4804   32.6612 C   0  0  0  0  0  0  0  0  0  0  0  0
  -13.5160  -26.5896   31.7784 H   0  0  0  0  0  0  0  0  0  0  0  0
  -15.8915  -26.8921   32.4343 H   0  0  0  0  0  0  0  0  0  0  0  0
  -16.1828  -27.4882   30.7816 H   0  0  0  0  0  0  0  0  0  0  0  0
  -16.8943  -25.1636   30.8957 H   0  0  0  0  0  0  0  0  0  0  0  0
  -15.4835  -25.2224   29.8815 H   0  0  0  0  0  0  0  0  0  0  0  0
  -13.7601  -22.3815   33.3942 H   0  0  0  0  0  0  0  0  0  0  0  0
  -11.0557  -22.4824   27.5832 H   0  0  0  0  0  0  0  0  0  0  0  0
  -12.0886  -24.7506   27.4674 H   0  0  0  0  0  0  0  0  0  0  0  0
  -13.5430  -25.4250   29.3735 H   0  0  0  0  0  0  0  0  0  0  0  0
  -11.7624  -28.5305   32.6719 H   0  0  0  0  0  0  0  0  0  0  0  0
   -8.5972  -25.5898   30.1064 H   0  0  0  0  0  0  0  0  0  0  0  0
  -10.0451  -24.5999   29.9224 H   0  0  0  0  0  0  0  0  0  0  0  0
   -8.7216  -24.4908   32.2741 H   0  0  0  0  0  0  0  0  0  0  0  0
  -10.4804  -24.5485   32.2820 H   0  0  0  0  0  0  0  0  0  0  0  0
  -10.0962  -26.4941   33.6267 H   0  0  0  0  0  0  0  0  0  0  0  0
   -8.5956  -26.9220   32.7188 H   0  0  0  0  0  0  0  0  0  0  0  0
  1  2  2  0
  2  3  1  0
  3  4  1  0
  4  5  1  0
  5  6  1  0
  6  7  2  0
  6  8  1  0
  8  9  2  0
  9 10  1  0
 10 11  2  0
 11 12  1  0
 12 13  2  0
 13 14  1  0
 14 15  2  0
 15 16  1  0
  2 17  1  0
 17 18  2  0
 18 19  1  0
 19 20  1  0
 20 21  2  0
 20 22  1  0
 22 23  1  0
 23 24  1  0
 16  8  1  0
 21 17  1  0
 16 11  1  0
 24 19  1  0
  3 25  1  0
  4 26  1  0
  4 27  1  0
  5 28  1  0
  5 29  1  0
  9 30  1  0
 13 31  1  0
 14 32  1  0
 15 33  1  0
 18 34  1  0
 22 35  1  0
 22 36  1  0
 23 37  1  0
 23 38  1  0
 24 39  1  0
 24 40  1  0
M  END
>  <Energy>  (1115) 
77.627079782384484

>  <compound_id>  (1115) 
62285

>  <target_id>  (1115) 
1

>  <reference_id>  (1115) 
35

>  <inspiration_ids>  (1115) 
[107, 35]

>  <energy_score>  (1115) 
-23.253336426176304

>  <distance_score>  (1115) 
2.8194021800578457

>  <path>  (1115) 
/opt/xchem-fragalysis-2/maxwin/BulkDock/SCRATCH/511021/C62285-P35/C62285-P35.minimised.mol

>  <scratch_subdir>  (1115) 
/opt/xchem-fragalysis-2/maxwin/BulkDock/SCRATCH/511021/C62285-P35

>  <fragmenstein_runtime>  (1115) 
4.533732652664185

>  <fragmenstein_outcome>  (1115) 
too moved

>  <fragmenstein_mode>  (1115) 
expansion

>  <fragmenstein_error>  (1115) 


$$$$
C62286-P107
     RDKit          3D

 38 41  0  0  0  0  0  0  0  0999 V2000
  -11.0074  -27.7517   31.5959 O   0  0  0  0  0  0  0  0  0  0  0  0
  -10.8366  -26.7673   30.9463 C   0  0  0  0  0  0  0  0  0  0  0  0
  -10.4676  -25.4436   31.3365 N   0  0  0  0  0  0  0  0  0  0  0  0
  -10.2814  -24.8624   32.6376 C   0  0  0  0  0  0  0  0  0  0  0  0
  -11.6435  -24.5970   33.2821 C   0  0  0  0  0  0  0  0  0  0  0  0
  -12.2769  -23.2353   33.0969 C   0  0  0  0  0  0  0  0  0  0  0  0
  -13.1535  -22.8017   33.8319 O   0  0  0  0  0  0  0  0  0  0  0  0
  -11.8578  -22.4975   31.9625 C   0  0  0  0  0  0  0  0  0  0  0  0
  -11.2160  -21.3001   31.8998 C   0  0  0  0  0  0  0  0  0  0  0  0
  -10.8361  -21.0364   30.6196 N   0  0  0  0  0  0  0  0  0  0  0  0
  -11.4155  -21.9268   29.8668 C   0  0  0  0  0  0  0  0  0  0  0  0
  -11.3749  -22.0522   28.5181 N   0  0  0  0  0  0  0  0  0  0  0  0
  -12.1836  -22.9278   28.0267 C   0  0  0  0  0  0  0  0  0  0  0  0
  -13.0721  -23.8130   28.8090 C   0  0  0  0  0  0  0  0  0  0  0  0
  -12.9249  -23.7560   30.1274 C   0  0  0  0  0  0  0  0  0  0  0  0
  -12.1070  -22.8103   30.6634 N   0  0  0  0  0  0  0  0  0  0  0  0
  -11.1282  -26.8230   29.5119 C   0  0  0  0  0  0  0  0  0  0  0  0
  -10.5024  -26.1892   28.4391 C   0  0  0  0  0  0  0  0  0  0  0  0
  -11.4129  -26.2878   27.4410 N   0  0  0  0  0  0  0  0  0  0  0  0
  -12.5224  -26.8783   27.9370 C   0  0  0  0  0  0  0  0  0  0  0  0
  -12.3477  -27.3657   29.1186 N   0  0  0  0  0  0  0  0  0  0  0  0
  -13.9423  -26.6376   27.0019 S   0  0  0  0  0  0  0  0  0  0  0  0
  -13.0294  -25.5974   25.8086 C   0  0  0  0  0  0  0  0  0  0  0  0
  -11.5287  -25.7267   26.1173 C   0  0  0  0  0  0  0  0  0  0  0  0
  -10.3338  -24.8823   30.5091 H   0  0  0  0  0  0  0  0  0  0  0  0
   -9.7403  -25.5852   33.2475 H   0  0  0  0  0  0  0  0  0  0  0  0
   -9.6655  -23.9672   32.5447 H   0  0  0  0  0  0  0  0  0  0  0  0
  -11.5148  -24.7478   34.3497 H   0  0  0  0  0  0  0  0  0  0  0  0
  -12.3888  -25.2959   32.9101 H   0  0  0  0  0  0  0  0  0  0  0  0
  -10.9991  -20.6061   32.6960 H   0  0  0  0  0  0  0  0  0  0  0  0
  -12.2325  -23.0323   26.9353 H   0  0  0  0  0  0  0  0  0  0  0  0
  -13.8073  -24.4364   28.3513 H   0  0  0  0  0  0  0  0  0  0  0  0
  -13.4623  -24.3597   30.8263 H   0  0  0  0  0  0  0  0  0  0  0  0
   -9.5743  -25.6425   28.3584 H   0  0  0  0  0  0  0  0  0  0  0  0
  -13.3754  -24.5653   25.8789 H   0  0  0  0  0  0  0  0  0  0  0  0
  -13.2717  -25.9573   24.8095 H   0  0  0  0  0  0  0  0  0  0  0  0
  -11.0519  -26.4377   25.4382 H   0  0  0  0  0  0  0  0  0  0  0  0
  -11.0045  -24.7702   26.0679 H   0  0  0  0  0  0  0  0  0  0  0  0
  1  2  2  0
  2  3  1  0
  3  4  1  0
  4  5  1  0
  5  6  1  0
  6  7  2  0
  6  8  1  0
  8  9  2  0
  9 10  1  0
 10 11  2  0
 11 12  1  0
 12 13  2  0
 13 14  1  0
 14 15  2  0
 15 16  1  0
  2 17  1  0
 17 18  2  0
 18 19  1  0
 19 20  1  0
 20 21  2  0
 20 22  1  0
 22 23  1  0
 23 24  1  0
 16  8  1  0
 21 17  1  0
 16 11  1  0
 24 19  1  0
  3 25  1  0
  4 26  1  0
  4 27  1  0
  5 28  1  0
  5 29  1  0
  9 30  1  0
 13 31  1  0
 14 32  1  0
 15 33  1  0
 18 34  1  0
 23 35  1  0
 23 36  1  0
 24 37  1  0
 24 38  1  0
M  END
>  <Energy>  (1116) 
65.593020628184178

>  <compound_id>  (1116) 
62286

>  <target_id>  (1116) 
1

>  <reference_id>  (1116) 
107

>  <inspiration_ids>  (1116) 
[107, 35]

>  <energy_score>  (1116) 
-1.185883008244872

>  <distance_score>  (1116) 
3.412341883363314

>  <path>  (1116) 
/opt/xchem-fragalysis-2/maxwin/BulkDock/SCRATCH/511021/C62286-P107/C62286-P107.minimised.mol

>  <scratch_subdir>  (1116) 
/opt/xchem-fragalysis-2/maxwin/BulkDock/SCRATCH/511021/C62286-P107

>  <fragmenstein_runtime>  (1116) 
7.94910192489624

>  <fragmenstein_outcome>  (1116) 
too moved

>  <fragmenstein_mode>  (1116) 
expansion

>  <fragmenstein_error>  (1116) 


$$$$
C62286-P35
     RDKit          3D

 38 41  0  0  0  0  0  0  0  0999 V2000
  -12.3059  -25.3056   31.2943 O   0  0  0  0  0  0  0  0  0  0  0  0
  -11.7113  -24.6436   30.4998 C   0  0  0  0  0  0  0  0  0  0  0  0
  -11.3331  -23.2748   30.5279 N   0  0  0  0  0  0  0  0  0  0  0  0
  -11.4618  -22.2736   31.5660 C   0  0  0  0  0  0  0  0  0  0  0  0
  -11.5662  -22.8363   32.9742 C   0  0  0  0  0  0  0  0  0  0  0  0
  -12.8248  -22.3407   33.6527 C   0  0  0  0  0  0  0  0  0  0  0  0
  -12.7100  -21.5646   34.6050 O   0  0  0  0  0  0  0  0  0  0  0  0
  -14.1150  -22.6875   33.0592 C   0  0  0  0  0  0  0  0  0  0  0  0
  -14.8528  -21.6573   32.5257 C   0  0  0  0  0  0  0  0  0  0  0  0
  -14.6135  -21.7458   31.1767 N   0  0  0  0  0  0  0  0  0  0  0  0
  -14.2796  -23.0086   30.9352 C   0  0  0  0  0  0  0  0  0  0  0  0
  -14.0921  -23.7086   29.7673 N   0  0  0  0  0  0  0  0  0  0  0  0
  -14.5761  -24.9174   29.7925 C   0  0  0  0  0  0  0  0  0  0  0  0
  -15.2400  -25.5641   30.9549 C   0  0  0  0  0  0  0  0  0  0  0  0
  -15.1020  -24.8925   32.1090 C   0  0  0  0  0  0  0  0  0  0  0  0
  -14.4372  -23.6681   32.1289 N   0  0  0  0  0  0  0  0  0  0  0  0
  -11.1565  -25.3325   29.2955 C   0  0  0  0  0  0  0  0  0  0  0  0
  -11.2368  -26.7366   29.2029 C   0  0  0  0  0  0  0  0  0  0  0  0
  -10.0437  -27.0534   29.8703 N   0  0  0  0  0  0  0  0  0  0  0  0
   -9.3322  -25.8712   29.9414 C   0  0  0  0  0  0  0  0  0  0  0  0
   -9.8372  -25.0258   29.0707 N   0  0  0  0  0  0  0  0  0  0  0  0
   -8.9260  -25.4859   31.6078 S   0  0  0  0  0  0  0  0  0  0  0  0
   -9.7572  -26.9370   32.2421 C   0  0  0  0  0  0  0  0  0  0  0  0
   -9.9294  -27.8899   31.0554 C   0  0  0  0  0  0  0  0  0  0  0  0
  -10.9094  -23.0319   29.6390 H   0  0  0  0  0  0  0  0  0  0  0  0
  -10.5580  -21.6628   31.5247 H   0  0  0  0  0  0  0  0  0  0  0  0
  -12.2346  -21.5715   31.2774 H   0  0  0  0  0  0  0  0  0  0  0  0
  -10.7171  -22.4685   33.5660 H   0  0  0  0  0  0  0  0  0  0  0  0
  -11.5080  -23.9210   33.0383 H   0  0  0  0  0  0  0  0  0  0  0  0
  -15.1075  -20.7100   32.9812 H   0  0  0  0  0  0  0  0  0  0  0  0
  -14.4955  -25.5435   28.8888 H   0  0  0  0  0  0  0  0  0  0  0  0
  -15.7498  -26.5064   30.8392 H   0  0  0  0  0  0  0  0  0  0  0  0
  -15.5447  -25.2516   33.0104 H   0  0  0  0  0  0  0  0  0  0  0  0
  -12.0814  -27.3958   29.3423 H   0  0  0  0  0  0  0  0  0  0  0  0
  -10.7213  -26.6625   32.6719 H   0  0  0  0  0  0  0  0  0  0  0  0
   -9.1323  -27.3193   33.0363 H   0  0  0  0  0  0  0  0  0  0  0  0
  -10.8249  -28.5115   31.1485 H   0  0  0  0  0  0  0  0  0  0  0  0
   -9.0559  -28.5328   30.9132 H   0  0  0  0  0  0  0  0  0  0  0  0
  1  2  2  0
  2  3  1  0
  3  4  1  0
  4  5  1  0
  5  6  1  0
  6  7  2  0
  6  8  1  0
  8  9  2  0
  9 10  1  0
 10 11  2  0
 11 12  1  0
 12 13  2  0
 13 14  1  0
 14 15  2  0
 15 16  1  0
  2 17  1  0
 17 18  2  0
 18 19  1  0
 19 20  1  0
 20 21  2  0
 20 22  1  0
 22 23  1  0
 23 24  1  0
 16  8  1  0
 21 17  1  0
 16 11  1  0
 24 19  1  0
  3 25  1  0
  4 26  1  0
  4 27  1  0
  5 28  1  0
  5 29  1  0
  9 30  1  0
 13 31  1  0
 14 32  1  0
 15 33  1  0
 18 34  1  0
 23 35  1  0
 23 36  1  0
 24 37  1  0
 24 38  1  0
M  END
>  <Energy>  (1117) 
174.23524544270106

>  <compound_id>  (1117) 
62286

>  <target_id>  (1117) 
1

>  <reference_id>  (1117) 
35

>  <inspiration_ids>  (1117) 
[107, 35]

>  <energy_score>  (1117) 
107.45634180627303

>  <distance_score>  (1117) 
3.31475793427452

>  <path>  (1117) 
/opt/xchem-fragalysis-2/maxwin/BulkDock/SCRATCH/511021/C62286-P35/C62286-P35.minimised.mol

>  <scratch_subdir>  (1117) 
/opt/xchem-fragalysis-2/maxwin/BulkDock/SCRATCH/511021/C62286-P35

>  <fragmenstein_runtime>  (1117) 
4.6954123973846436

>  <fragmenstein_outcome>  (1117) 
too moved

>  <fragmenstein_mode>  (1117) 
expansion

>  <fragmenstein_error>  (1117) 


$$$$
C62288-P107
     RDKit          3D

 38 41  0  0  0  0  0  0  0  0999 V2000
  -13.5822  -25.2888   27.1258 O   0  0  0  0  0  0  0  0  0  0  0  0
  -12.6988  -24.8573   27.7411 C   0  0  0  0  0  0  0  0  0  0  0  0
  -11.4078  -25.5194   28.2204 N   0  0  0  0  0  0  0  0  0  0  0  0
  -10.9714  -26.8737   28.1287 C   0  0  0  0  0  0  0  0  0  0  0  0
  -10.9341  -27.1367   29.6202 C   0  0  0  0  0  0  0  0  0  0  0  0
   -9.8532  -27.2978   30.4545 C   0  0  0  0  0  0  0  0  0  0  0  0
  -10.0527  -26.3265   31.3737 N   0  0  0  0  0  0  0  0  0  0  0  0
  -11.3796  -26.0472   31.3922 C   0  0  0  0  0  0  0  0  0  0  0  0
  -11.9670  -26.6324   30.3787 N   0  0  0  0  0  0  0  0  0  0  0  0
  -11.9507  -25.0755   32.3391 C   0  0  0  0  0  0  0  0  0  0  0  0
  -10.9372  -24.3341   33.1710 C   0  0  0  0  0  0  0  0  0  0  0  0
   -9.7977  -25.2702   33.4863 C   0  0  0  0  0  0  0  0  0  0  0  0
   -9.1185  -25.5659   32.1619 C   0  0  0  0  0  0  0  0  0  0  0  0
  -12.6223  -23.5176   28.3402 C   0  0  0  0  0  0  0  0  0  0  0  0
  -11.5370  -22.5438   28.2035 C   0  0  0  0  0  0  0  0  0  0  0  0
  -11.0838  -21.7653   29.1370 N   0  0  0  0  0  0  0  0  0  0  0  0
  -11.6894  -21.8532   30.3555 C   0  0  0  0  0  0  0  0  0  0  0  0
  -11.3211  -21.3684   31.5234 N   0  0  0  0  0  0  0  0  0  0  0  0
  -12.3467  -21.6430   32.3979 C   0  0  0  0  0  0  0  0  0  0  0  0
  -13.3512  -22.3196   31.7539 C   0  0  0  0  0  0  0  0  0  0  0  0
  -12.8546  -22.5763   30.4989 N   0  0  0  0  0  0  0  0  0  0  0  0
  -13.2549  -23.4636   29.5219 C   0  0  0  0  0  0  0  0  0  0  0  0
  -10.8940  -24.8731   28.8055 H   0  0  0  0  0  0  0  0  0  0  0  0
   -9.9865  -26.8819   27.6638 H   0  0  0  0  0  0  0  0  0  0  0  0
  -11.7106  -27.4854   27.6175 H   0  0  0  0  0  0  0  0  0  0  0  0
   -8.9162  -27.8019   30.3584 H   0  0  0  0  0  0  0  0  0  0  0  0
  -12.5607  -24.4298   31.7584 H   0  0  0  0  0  0  0  0  0  0  0  0
  -12.6720  -25.4731   33.0303 H   0  0  0  0  0  0  0  0  0  0  0  0
  -10.5326  -23.4713   32.6410 H   0  0  0  0  0  0  0  0  0  0  0  0
  -11.4490  -23.9733   34.0655 H   0  0  0  0  0  0  0  0  0  0  0  0
  -10.2423  -26.1476   33.9587 H   0  0  0  0  0  0  0  0  0  0  0  0
   -9.0839  -24.8865   34.1963 H   0  0  0  0  0  0  0  0  0  0  0  0
   -8.9316  -24.6487   31.6082 H   0  0  0  0  0  0  0  0  0  0  0  0
   -8.1597  -26.0659   32.2430 H   0  0  0  0  0  0  0  0  0  0  0  0
  -11.0905  -22.5108   27.2071 H   0  0  0  0  0  0  0  0  0  0  0  0
  -12.3079  -21.3300   33.4343 H   0  0  0  0  0  0  0  0  0  0  0  0
  -14.2961  -22.7231   32.0938 H   0  0  0  0  0  0  0  0  0  0  0  0
  -13.9911  -24.1848   29.8111 H   0  0  0  0  0  0  0  0  0  0  0  0
  1  2  2  0
  2  3  1  0
  3  4  1  0
  4  5  1  0
  5  6  2  0
  6  7  1  0
  7  8  1  0
  8  9  2  0
  8 10  1  0
 10 11  1  0
 11 12  1  0
 12 13  1  0
  2 14  1  0
 14 15  1  0
 15 16  2  0
 16 17  1  0
 17 18  2  0
 18 19  1  0
 19 20  2  0
 20 21  1  0
 21 22  1  0
  9  5  1  0
 22 14  2  0
 13  7  1  0
 21 17  1  0
  3 23  1  0
  4 24  1  0
  4 25  1  0
  6 26  1  0
 10 27  1  0
 10 28  1  0
 11 29  1  0
 11 30  1  0
 12 31  1  0
 12 32  1  0
 13 33  1  0
 13 34  1  0
 15 35  1  0
 19 36  1  0
 20 37  1  0
 22 38  1  0
M  END
>  <Energy>  (1118) 
83.420389261241667

>  <compound_id>  (1118) 
62288

>  <target_id>  (1118) 
1

>  <reference_id>  (1118) 
107

>  <inspiration_ids>  (1118) 
[107, 35]

>  <energy_score>  (1118) 
31.084341793205567

>  <distance_score>  (1118) 
1.7814784586313304

>  <path>  (1118) 
/opt/xchem-fragalysis-2/maxwin/BulkDock/SCRATCH/511021/C62288-P107/C62288-P107.minimised.mol

>  <scratch_subdir>  (1118) 
/opt/xchem-fragalysis-2/maxwin/BulkDock/SCRATCH/511021/C62288-P107

>  <fragmenstein_runtime>  (1118) 
5.044865369796753

>  <fragmenstein_outcome>  (1118) 
too moved

>  <fragmenstein_mode>  (1118) 
expansion

>  <fragmenstein_error>  (1118) 


$$$$
C62288-P35
     RDKit          3D

 38 41  0  0  0  0  0  0  0  0999 V2000
  -14.1515  -26.2638   28.1131 O   0  0  0  0  0  0  0  0  0  0  0  0
  -13.2278  -25.5903   28.2971 C   0  0  0  0  0  0  0  0  0  0  0  0
  -11.7467  -25.8676   28.0880 N   0  0  0  0  0  0  0  0  0  0  0  0
  -11.0747  -27.0585   27.6997 C   0  0  0  0  0  0  0  0  0  0  0  0
  -10.1016  -26.9565   28.8626 C   0  0  0  0  0  0  0  0  0  0  0  0
   -9.9455  -27.8067   29.9256 C   0  0  0  0  0  0  0  0  0  0  0  0
   -9.6214  -26.9735   30.9512 N   0  0  0  0  0  0  0  0  0  0  0  0
   -9.6347  -25.6872   30.5704 C   0  0  0  0  0  0  0  0  0  0  0  0
   -9.7220  -25.6414   29.2649 N   0  0  0  0  0  0  0  0  0  0  0  0
   -9.6357  -24.6142   31.5948 C   0  0  0  0  0  0  0  0  0  0  0  0
  -10.1323  -25.0263   32.9535 C   0  0  0  0  0  0  0  0  0  0  0  0
   -9.4059  -26.2774   33.3617 C   0  0  0  0  0  0  0  0  0  0  0  0
   -9.6016  -27.3385   32.3148 C   0  0  0  0  0  0  0  0  0  0  0  0
  -13.1999  -24.2387   28.9076 C   0  0  0  0  0  0  0  0  0  0  0  0
  -12.3107  -23.1091   28.4852 C   0  0  0  0  0  0  0  0  0  0  0  0
  -11.8359  -22.1715   29.2486 N   0  0  0  0  0  0  0  0  0  0  0  0
  -12.1720  -22.2531   30.5677 C   0  0  0  0  0  0  0  0  0  0  0  0
  -11.7187  -21.5491   31.5837 N   0  0  0  0  0  0  0  0  0  0  0  0
  -12.3945  -21.9906   32.6900 C   0  0  0  0  0  0  0  0  0  0  0  0
  -13.2626  -22.9956   32.3509 C   0  0  0  0  0  0  0  0  0  0  0  0
  -13.0568  -23.2221   31.0215 N   0  0  0  0  0  0  0  0  0  0  0  0
  -13.5316  -24.2330   30.2104 C   0  0  0  0  0  0  0  0  0  0  0  0
  -11.2012  -25.0784   28.4322 H   0  0  0  0  0  0  0  0  0  0  0  0
  -10.5995  -26.9424   26.7310 H   0  0  0  0  0  0  0  0  0  0  0  0
  -11.7377  -27.9231   27.7536 H   0  0  0  0  0  0  0  0  0  0  0  0
  -10.2105  -28.8390   30.0845 H   0  0  0  0  0  0  0  0  0  0  0  0
   -8.6204  -24.2903   31.7645 H   0  0  0  0  0  0  0  0  0  0  0  0
  -10.2697  -23.8052   31.2659 H   0  0  0  0  0  0  0  0  0  0  0  0
   -9.9849  -24.2229   33.6824 H   0  0  0  0  0  0  0  0  0  0  0  0
  -11.1969  -25.2095   32.8724 H   0  0  0  0  0  0  0  0  0  0  0  0
   -9.7658  -26.6424   34.3212 H   0  0  0  0  0  0  0  0  0  0  0  0
   -8.3380  -26.1074   33.4689 H   0  0  0  0  0  0  0  0  0  0  0  0
   -8.7606  -28.0261   32.3328 H   0  0  0  0  0  0  0  0  0  0  0  0
  -10.6048  -27.7537   32.4706 H   0  0  0  0  0  0  0  0  0  0  0  0
  -12.0374  -23.1041   27.4157 H   0  0  0  0  0  0  0  0  0  0  0  0
  -12.2360  -21.5463   33.6644 H   0  0  0  0  0  0  0  0  0  0  0  0
  -13.9861  -23.5566   32.9214 H   0  0  0  0  0  0  0  0  0  0  0  0
  -14.0720  -25.0353   30.6993 H   0  0  0  0  0  0  0  0  0  0  0  0
  1  2  2  0
  2  3  1  0
  3  4  1  0
  4  5  1  0
  5  6  2  0
  6  7  1  0
  7  8  1  0
  8  9  2  0
  8 10  1  0
 10 11  1  0
 11 12  1  0
 12 13  1  0
  2 14  1  0
 14 15  1  0
 15 16  2  0
 16 17  1  0
 17 18  2  0
 18 19  1  0
 19 20  2  0
 20 21  1  0
 21 22  1  0
  9  5  1  0
 22 14  2  0
 13  7  1  0
 21 17  1  0
  3 23  1  0
  4 24  1  0
  4 25  1  0
  6 26  1  0
 10 27  1  0
 10 28  1  0
 11 29  1  0
 11 30  1  0
 12 31  1  0
 12 32  1  0
 13 33  1  0
 13 34  1  0
 15 35  1  0
 19 36  1  0
 20 37  1  0
 22 38  1  0
M  END
>  <Energy>  (1119) 
59.340177298085578

>  <compound_id>  (1119) 
62288

>  <target_id>  (1119) 
1

>  <reference_id>  (1119) 
35

>  <inspiration_ids>  (1119) 
[107, 35]

>  <energy_score>  (1119) 
7.004129830049237

>  <distance_score>  (1119) 
1.5893179922340475

>  <path>  (1119) 
/opt/xchem-fragalysis-2/maxwin/BulkDock/SCRATCH/511021/C62288-P35/C62288-P35.minimised.mol

>  <scratch_subdir>  (1119) 
/opt/xchem-fragalysis-2/maxwin/BulkDock/SCRATCH/511021/C62288-P35

>  <fragmenstein_runtime>  (1119) 
3.1141703128814697

>  <fragmenstein_outcome>  (1119) 
too moved

>  <fragmenstein_mode>  (1119) 
expansion

>  <fragmenstein_error>  (1119) 


$$$$
C62289-P107
     RDKit          3D

 33 36  0  0  0  0  0  0  0  0999 V2000
  -12.5314  -22.4637   33.8681 O   0  0  0  0  0  0  0  0  0  0  0  0
  -13.1697  -22.4213   32.8622 C   0  0  0  0  0  0  0  0  0  0  0  0
  -14.4606  -21.8911   32.6039 N   0  0  0  0  0  0  0  0  0  0  0  0
  -15.4433  -21.3260   33.4889 C   0  0  0  0  0  0  0  0  0  0  0  0
  -15.0552  -20.0152   34.1044 C   0  0  0  0  0  0  0  0  0  0  0  0
  -13.8234  -19.5528   34.5658 C   0  0  0  0  0  0  0  0  0  0  0  0
  -14.0981  -18.3671   35.1525 N   0  0  0  0  0  0  0  0  0  0  0  0
  -15.4249  -18.1314   35.0383 C   0  0  0  0  0  0  0  0  0  0  0  0
  -16.0440  -19.0663   34.3748 N   0  0  0  0  0  0  0  0  0  0  0  0
  -15.9088  -16.6432   35.7350 S   0  0  0  0  0  0  0  0  0  0  0  0
  -14.2576  -16.4274   36.5268 C   0  0  0  0  0  0  0  0  0  0  0  0
  -13.2861  -17.3531   35.7835 C   0  0  0  0  0  0  0  0  0  0  0  0
  -12.6188  -23.0682   31.6695 C   0  0  0  0  0  0  0  0  0  0  0  0
  -11.6994  -24.0984   31.6786 C   0  0  0  0  0  0  0  0  0  0  0  0
  -11.5241  -24.4337   30.3722 N   0  0  0  0  0  0  0  0  0  0  0  0
  -10.7265  -25.4199   29.8113 C   0  0  0  0  0  0  0  0  0  0  0  0
  -10.6696  -25.5295   28.4777 C   0  0  0  0  0  0  0  0  0  0  0  0
  -11.5035  -24.5436   27.7301 C   0  0  0  0  0  0  0  0  0  0  0  0
  -12.2698  -23.6300   28.2406 N   0  0  0  0  0  0  0  0  0  0  0  0
  -12.2917  -23.5614   29.6034 C   0  0  0  0  0  0  0  0  0  0  0  0
  -12.9684  -22.7366   30.3748 N   0  0  0  0  0  0  0  0  0  0  0  0
  -14.7218  -22.1083   31.6416 H   0  0  0  0  0  0  0  0  0  0  0  0
  -16.3685  -21.2102   32.9152 H   0  0  0  0  0  0  0  0  0  0  0  0
  -15.6215  -22.0523   34.2890 H   0  0  0  0  0  0  0  0  0  0  0  0
  -12.8304  -19.9835   34.5461 H   0  0  0  0  0  0  0  0  0  0  0  0
  -13.9476  -15.3811   36.4825 H   0  0  0  0  0  0  0  0  0  0  0  0
  -14.3442  -16.7270   37.5765 H   0  0  0  0  0  0  0  0  0  0  0  0
  -12.7532  -16.8214   34.9888 H   0  0  0  0  0  0  0  0  0  0  0  0
  -12.5689  -17.8290   36.4582 H   0  0  0  0  0  0  0  0  0  0  0  0
  -11.2160  -24.6147   32.4958 H   0  0  0  0  0  0  0  0  0  0  0  0
  -10.1706  -26.0570   30.4892 H   0  0  0  0  0  0  0  0  0  0  0  0
  -10.0721  -26.2552   27.9464 H   0  0  0  0  0  0  0  0  0  0  0  0
  -11.4465  -24.6276   26.6318 H   0  0  0  0  0  0  0  0  0  0  0  0
  1  2  2  0
  2  3  1  0
  3  4  1  0
  4  5  1  0
  5  6  2  0
  6  7  1  0
  7  8  1  0
  8  9  2  0
  8 10  1  0
 10 11  1  0
 11 12  1  0
  2 13  1  0
 13 14  2  0
 14 15  1  0
 15 16  1  0
 16 17  2  0
 17 18  1  0
 18 19  2  0
 19 20  1  0
 20 21  2  0
  9  5  1  0
 21 13  1  0
 12  7  1  0
 20 15  1  0
  3 22  1  0
  4 23  1  0
  4 24  1  0
  6 25  1  0
 11 26  1  0
 11 27  1  0
 12 28  1  0
 12 29  1  0
 14 30  1  0
 16 31  1  0
 17 32  1  0
 18 33  1  0
M  END
>  <Energy>  (1120) 
33.229283425124684

>  <compound_id>  (1120) 
62289

>  <target_id>  (1120) 
1

>  <reference_id>  (1120) 
107

>  <inspiration_ids>  (1120) 
[107, 35]

>  <energy_score>  (1120) 
-35.534547211440724

>  <distance_score>  (1120) 
2.2092900898484684

>  <path>  (1120) 
/opt/xchem-fragalysis-2/maxwin/BulkDock/SCRATCH/511021/C62289-P107/C62289-P107.minimised.mol

>  <scratch_subdir>  (1120) 
/opt/xchem-fragalysis-2/maxwin/BulkDock/SCRATCH/511021/C62289-P107

>  <fragmenstein_runtime>  (1120) 
8.65582275390625

>  <fragmenstein_outcome>  (1120) 
too moved

>  <fragmenstein_mode>  (1120) 
expansion

>  <fragmenstein_error>  (1120) 


$$$$
C62289-P35
     RDKit          3D

 33 36  0  0  0  0  0  0  0  0999 V2000
  -11.5103  -22.1652   35.3329 O   0  0  0  0  0  0  0  0  0  0  0  0
  -11.5727  -21.6411   34.2959 C   0  0  0  0  0  0  0  0  0  0  0  0
  -11.9135  -20.1957   33.9344 N   0  0  0  0  0  0  0  0  0  0  0  0
  -12.3436  -19.1053   34.7594 C   0  0  0  0  0  0  0  0  0  0  0  0
  -11.4326  -18.7448   35.8503 C   0  0  0  0  0  0  0  0  0  0  0  0
  -10.0530  -18.8569   35.9241 C   0  0  0  0  0  0  0  0  0  0  0  0
   -9.7619  -18.2870   37.1070 N   0  0  0  0  0  0  0  0  0  0  0  0
  -10.8998  -17.8550   37.6917 C   0  0  0  0  0  0  0  0  0  0  0  0
  -11.9524  -18.1119   36.9787 N   0  0  0  0  0  0  0  0  0  0  0  0
  -10.6398  -17.1205   39.2150 S   0  0  0  0  0  0  0  0  0  0  0  0
   -8.9281  -17.8048   39.2648 C   0  0  0  0  0  0  0  0  0  0  0  0
   -8.5317  -18.0457   37.8096 C   0  0  0  0  0  0  0  0  0  0  0  0
  -11.4181  -22.3486   33.0090 C   0  0  0  0  0  0  0  0  0  0  0  0
  -11.0181  -23.6451   32.7722 C   0  0  0  0  0  0  0  0  0  0  0  0
  -11.2710  -23.8754   31.4464 N   0  0  0  0  0  0  0  0  0  0  0  0
  -11.0778  -25.0209   30.6863 C   0  0  0  0  0  0  0  0  0  0  0  0
  -11.3483  -24.9885   29.3737 C   0  0  0  0  0  0  0  0  0  0  0  0
  -11.8464  -23.6780   28.8627 C   0  0  0  0  0  0  0  0  0  0  0  0
  -12.0417  -22.6009   29.5599 N   0  0  0  0  0  0  0  0  0  0  0  0
  -11.7535  -22.6916   30.8920 C   0  0  0  0  0  0  0  0  0  0  0  0
  -11.8174  -21.7544   31.8111 N   0  0  0  0  0  0  0  0  0  0  0  0
  -11.9558  -20.1009   32.9269 H   0  0  0  0  0  0  0  0  0  0  0  0
  -13.3438  -19.3435   35.1030 H   0  0  0  0  0  0  0  0  0  0  0  0
  -12.5036  -18.2255   34.1475 H   0  0  0  0  0  0  0  0  0  0  0  0
   -9.3157  -19.2551   35.2404 H   0  0  0  0  0  0  0  0  0  0  0  0
   -8.2504  -17.1290   39.7822 H   0  0  0  0  0  0  0  0  0  0  0  0
   -8.9567  -18.7556   39.8038 H   0  0  0  0  0  0  0  0  0  0  0  0
   -8.0793  -17.1578   37.3582 H   0  0  0  0  0  0  0  0  0  0  0  0
   -7.8995  -18.9249   37.6813 H   0  0  0  0  0  0  0  0  0  0  0  0
  -10.6456  -24.4149   33.4295 H   0  0  0  0  0  0  0  0  0  0  0  0
  -10.7056  -25.8979   31.1995 H   0  0  0  0  0  0  0  0  0  0  0  0
  -11.2285  -25.8223   28.6981 H   0  0  0  0  0  0  0  0  0  0  0  0
  -12.0611  -23.6521   27.7808 H   0  0  0  0  0  0  0  0  0  0  0  0
  1  2  2  0
  2  3  1  0
  3  4  1  0
  4  5  1  0
  5  6  2  0
  6  7  1  0
  7  8  1  0
  8  9  2  0
  8 10  1  0
 10 11  1  0
 11 12  1  0
  2 13  1  0
 13 14  2  0
 14 15  1  0
 15 16  1  0
 16 17  2  0
 17 18  1  0
 18 19  2  0
 19 20  1  0
 20 21  2  0
  9  5  1  0
 21 13  1  0
 12  7  1  0
 20 15  1  0
  3 22  1  0
  4 23  1  0
  4 24  1  0
  6 25  1  0
 11 26  1  0
 11 27  1  0
 12 28  1  0
 12 29  1  0
 14 30  1  0
 16 31  1  0
 17 32  1  0
 18 33  1  0
M  END
>  <Energy>  (1121) 
43.999185301233801

>  <compound_id>  (1121) 
62289

>  <target_id>  (1121) 
1

>  <reference_id>  (1121) 
35

>  <inspiration_ids>  (1121) 
[107, 35]

>  <energy_score>  (1121) 
-18.906987358171136

>  <distance_score>  (1121) 
1.0225584109402586

>  <path>  (1121) 
/opt/xchem-fragalysis-2/maxwin/BulkDock/SCRATCH/511021/C62289-P35/C62289-P35.minimised.mol

>  <scratch_subdir>  (1121) 
/opt/xchem-fragalysis-2/maxwin/BulkDock/SCRATCH/511021/C62289-P35

>  <fragmenstein_runtime>  (1121) 
6.739090442657471

>  <fragmenstein_outcome>  (1121) 
too moved

>  <fragmenstein_mode>  (1121) 
expansion

>  <fragmenstein_error>  (1121) 


$$$$
C62290-P107
     RDKit          3D

 38 41  0  0  0  0  0  0  0  0999 V2000
  -14.8320  -23.1899   34.3454 O   0  0  0  0  0  0  0  0  0  0  0  0
  -14.6456  -22.5689   33.3796 C   0  0  0  0  0  0  0  0  0  0  0  0
  -15.4140  -21.3773   32.8017 N   0  0  0  0  0  0  0  0  0  0  0  0
  -16.5176  -20.6348   33.3335 C   0  0  0  0  0  0  0  0  0  0  0  0
  -16.0039  -19.6506   34.3318 C   0  0  0  0  0  0  0  0  0  0  0  0
  -16.5070  -19.3337   35.5794 C   0  0  0  0  0  0  0  0  0  0  0  0
  -15.5820  -18.4974   36.1342 N   0  0  0  0  0  0  0  0  0  0  0  0
  -14.5678  -18.3222   35.2291 C   0  0  0  0  0  0  0  0  0  0  0  0
  -14.8428  -18.9355   34.1012 N   0  0  0  0  0  0  0  0  0  0  0  0
  -13.3347  -17.5582   35.5546 C   0  0  0  0  0  0  0  0  0  0  0  0
  -13.1202  -17.5073   37.0659 C   0  0  0  0  0  0  0  0  0  0  0  0
  -14.4000  -17.0533   37.7714 C   0  0  0  0  0  0  0  0  0  0  0  0
  -15.5498  -18.0288   37.5048 C   0  0  0  0  0  0  0  0  0  0  0  0
  -13.5171  -22.8594   32.4732 C   0  0  0  0  0  0  0  0  0  0  0  0
  -12.6053  -23.8950   32.5657 C   0  0  0  0  0  0  0  0  0  0  0  0
  -12.0668  -23.9928   31.3118 N   0  0  0  0  0  0  0  0  0  0  0  0
  -11.3406  -25.0217   30.7293 C   0  0  0  0  0  0  0  0  0  0  0  0
  -11.0399  -24.9308   29.4286 C   0  0  0  0  0  0  0  0  0  0  0  0
  -10.2227  -26.1218   28.5340 Cl  0  0  0  0  0  0  0  0  0  0  0  0
  -11.4479  -23.6680   28.7478 C   0  0  0  0  0  0  0  0  0  0  0  0
  -12.0868  -22.6782   29.2939 N   0  0  0  0  0  0  0  0  0  0  0  0
  -12.4655  -22.8670   30.5932 C   0  0  0  0  0  0  0  0  0  0  0  0
  -13.2934  -22.1415   31.3082 N   0  0  0  0  0  0  0  0  0  0  0  0
  -14.9279  -21.0259   31.9861 H   0  0  0  0  0  0  0  0  0  0  0  0
  -17.0206  -20.1224   32.5090 H   0  0  0  0  0  0  0  0  0  0  0  0
  -17.2066  -21.3397   33.8081 H   0  0  0  0  0  0  0  0  0  0  0  0
  -17.3757  -19.6859   36.1175 H   0  0  0  0  0  0  0  0  0  0  0  0
  -12.4675  -18.0268   35.0775 H   0  0  0  0  0  0  0  0  0  0  0  0
  -13.4258  -16.5429   35.1513 H   0  0  0  0  0  0  0  0  0  0  0  0
  -12.8330  -18.4964   37.4372 H   0  0  0  0  0  0  0  0  0  0  0  0
  -12.2890  -16.8384   37.2939 H   0  0  0  0  0  0  0  0  0  0  0  0
  -14.6759  -16.0547   37.4093 H   0  0  0  0  0  0  0  0  0  0  0  0
  -14.2314  -16.9678   38.8504 H   0  0  0  0  0  0  0  0  0  0  0  0
  -15.4425  -18.9194   38.1350 H   0  0  0  0  0  0  0  0  0  0  0  0
  -16.5143  -17.5589   37.7233 H   0  0  0  0  0  0  0  0  0  0  0  0
  -12.4729  -24.6503   33.3264 H   0  0  0  0  0  0  0  0  0  0  0  0
  -11.0995  -25.8755   31.3495 H   0  0  0  0  0  0  0  0  0  0  0  0
  -11.1486  -23.5764   27.6900 H   0  0  0  0  0  0  0  0  0  0  0  0
  1  2  2  0
  2  3  1  0
  3  4  1  0
  4  5  1  0
  5  6  2  0
  6  7  1  0
  7  8  1  0
  8  9  2  0
  8 10  1  0
 10 11  1  0
 11 12  1  0
 12 13  1  0
  2 14  1  0
 14 15  2  0
 15 16  1  0
 16 17  1  0
 17 18  2  0
 18 19  1  0
 18 20  1  0
 20 21  2  0
 21 22  1  0
 22 23  2  0
  9  5  1  0
 23 14  1  0
 13  7  1  0
 22 16  1  0
  3 24  1  0
  4 25  1  0
  4 26  1  0
  6 27  1  0
 10 28  1  0
 10 29  1  0
 11 30  1  0
 11 31  1  0
 12 32  1  0
 12 33  1  0
 13 34  1  0
 13 35  1  0
 15 36  1  0
 17 37  1  0
 20 38  1  0
M  END
>  <Energy>  (1122) 
46.396076024840376

>  <compound_id>  (1122) 
62290

>  <target_id>  (1122) 
1

>  <reference_id>  (1122) 
107

>  <inspiration_ids>  (1122) 
[107, 35]

>  <energy_score>  (1122) 
-10.72043161824638

>  <distance_score>  (1122) 
2.618333388404724

>  <path>  (1122) 
/opt/xchem-fragalysis-2/maxwin/BulkDock/SCRATCH/511021/C62290-P107/C62290-P107.minimised.mol

>  <scratch_subdir>  (1122) 
/opt/xchem-fragalysis-2/maxwin/BulkDock/SCRATCH/511021/C62290-P107

>  <fragmenstein_runtime>  (1122) 
4.388049364089966

>  <fragmenstein_outcome>  (1122) 
too moved

>  <fragmenstein_mode>  (1122) 
expansion

>  <fragmenstein_error>  (1122) 


$$$$
C62290-P35
     RDKit          3D

 38 41  0  0  0  0  0  0  0  0999 V2000
  -10.1447  -22.2620   35.2055 O   0  0  0  0  0  0  0  0  0  0  0  0
  -10.4490  -21.6526   34.2624 C   0  0  0  0  0  0  0  0  0  0  0  0
  -10.2410  -20.1748   33.9262 N   0  0  0  0  0  0  0  0  0  0  0  0
   -9.5310  -19.1483   34.6340 C   0  0  0  0  0  0  0  0  0  0  0  0
   -9.9704  -18.8373   36.0127 C   0  0  0  0  0  0  0  0  0  0  0  0
  -11.1920  -18.4267   36.5200 C   0  0  0  0  0  0  0  0  0  0  0  0
  -10.9249  -18.0556   37.8041 N   0  0  0  0  0  0  0  0  0  0  0  0
   -9.5870  -18.2064   38.0273 C   0  0  0  0  0  0  0  0  0  0  0  0
   -8.9970  -18.7219   36.9818 N   0  0  0  0  0  0  0  0  0  0  0  0
   -8.9744  -17.7508   39.2936 C   0  0  0  0  0  0  0  0  0  0  0  0
   -9.6423  -16.4570   39.7591 C   0  0  0  0  0  0  0  0  0  0  0  0
  -11.1780  -16.4612   39.6981 C   0  0  0  0  0  0  0  0  0  0  0  0
  -11.8091  -17.5495   38.8243 C   0  0  0  0  0  0  0  0  0  0  0  0
  -11.0588  -22.2981   33.0803 C   0  0  0  0  0  0  0  0  0  0  0  0
  -11.0461  -23.6492   32.8014 C   0  0  0  0  0  0  0  0  0  0  0  0
  -11.4517  -23.7726   31.5039 N   0  0  0  0  0  0  0  0  0  0  0  0
  -11.4709  -24.8949   30.6891 C   0  0  0  0  0  0  0  0  0  0  0  0
  -11.7568  -24.7410   29.3920 C   0  0  0  0  0  0  0  0  0  0  0  0
  -11.7784  -26.0020   28.2471 Cl  0  0  0  0  0  0  0  0  0  0  0  0
  -12.0529  -23.3452   28.9574 C   0  0  0  0  0  0  0  0  0  0  0  0
  -12.0656  -22.2889   29.7176 N   0  0  0  0  0  0  0  0  0  0  0  0
  -11.7430  -22.4938   31.0308 C   0  0  0  0  0  0  0  0  0  0  0  0
  -11.5254  -21.5975   31.9724 N   0  0  0  0  0  0  0  0  0  0  0  0
  -10.5593  -19.9954   32.9799 H   0  0  0  0  0  0  0  0  0  0  0  0
   -8.4788  -19.4476   34.6375 H   0  0  0  0  0  0  0  0  0  0  0  0
   -9.6031  -18.2286   34.0540 H   0  0  0  0  0  0  0  0  0  0  0  0
  -12.1631  -18.3368   36.0561 H   0  0  0  0  0  0  0  0  0  0  0  0
   -9.0610  -18.5417   40.0410 H   0  0  0  0  0  0  0  0  0  0  0  0
   -7.9091  -17.5626   39.1428 H   0  0  0  0  0  0  0  0  0  0  0  0
   -9.3062  -16.2017   40.7706 H   0  0  0  0  0  0  0  0  0  0  0  0
   -9.2863  -15.6429   39.1162 H   0  0  0  0  0  0  0  0  0  0  0  0
  -11.5049  -15.4765   39.3525 H   0  0  0  0  0  0  0  0  0  0  0  0
  -11.5925  -16.5449   40.7081 H   0  0  0  0  0  0  0  0  0  0  0  0
  -12.7316  -17.1975   38.3554 H   0  0  0  0  0  0  0  0  0  0  0  0
  -12.0675  -18.4052   39.4538 H   0  0  0  0  0  0  0  0  0  0  0  0
  -10.6892  -24.4903   33.3766 H   0  0  0  0  0  0  0  0  0  0  0  0
  -11.2229  -25.8437   31.1460 H   0  0  0  0  0  0  0  0  0  0  0  0
  -12.2837  -23.2194   27.8860 H   0  0  0  0  0  0  0  0  0  0  0  0
  1  2  2  0
  2  3  1  0
  3  4  1  0
  4  5  1  0
  5  6  2  0
  6  7  1  0
  7  8  1  0
  8  9  2  0
  8 10  1  0
 10 11  1  0
 11 12  1  0
 12 13  1  0
  2 14  1  0
 14 15  2  0
 15 16  1  0
 16 17  1  0
 17 18  2  0
 18 19  1  0
 18 20  1  0
 20 21  2  0
 21 22  1  0
 22 23  2  0
  9  5  1  0
 23 14  1  0
 13  7  1  0
 22 16  1  0
  3 24  1  0
  4 25  1  0
  4 26  1  0
  6 27  1  0
 10 28  1  0
 10 29  1  0
 11 30  1  0
 11 31  1  0
 12 32  1  0
 12 33  1  0
 13 34  1  0
 13 35  1  0
 15 36  1  0
 17 37  1  0
 20 38  1  0
M  END
>  <Energy>  (1123) 
54.274648241795418

>  <compound_id>  (1123) 
62290

>  <target_id>  (1123) 
1

>  <reference_id>  (1123) 
35

>  <inspiration_ids>  (1123) 
[107, 35]

>  <energy_score>  (1123) 
-2.8418594012917424

>  <distance_score>  (1123) 
0.9816136336334205

>  <path>  (1123) 
/opt/xchem-fragalysis-2/maxwin/BulkDock/SCRATCH/511021/C62290-P35/C62290-P35.minimised.mol

>  <scratch_subdir>  (1123) 
/opt/xchem-fragalysis-2/maxwin/BulkDock/SCRATCH/511021/C62290-P35

>  <fragmenstein_runtime>  (1123) 
6.2562034130096436

>  <fragmenstein_outcome>  (1123) 
acceptable

>  <fragmenstein_mode>  (1123) 
expansion

>  <fragmenstein_error>  (1123) 


$$$$
C62291-P107
     RDKit          3D

 38 41  0  0  0  0  0  0  0  0999 V2000
  -12.4061  -24.6247   26.2852 O   0  0  0  0  0  0  0  0  0  0  0  0
  -12.5069  -24.6677   27.4321 C   0  0  0  0  0  0  0  0  0  0  0  0
  -12.3872  -25.8288   28.3801 N   0  0  0  0  0  0  0  0  0  0  0  0
  -12.0235  -27.1820   28.1438 C   0  0  0  0  0  0  0  0  0  0  0  0
  -11.2238  -27.3166   29.4107 C   0  0  0  0  0  0  0  0  0  0  0  0
   -9.9468  -26.8459   29.6378 C   0  0  0  0  0  0  0  0  0  0  0  0
   -9.9234  -26.4722   30.9580 N   0  0  0  0  0  0  0  0  0  0  0  0
  -11.2198  -26.4876   31.3561 C   0  0  0  0  0  0  0  0  0  0  0  0
  -11.9191  -27.2790   30.5815 N   0  0  0  0  0  0  0  0  0  0  0  0
  -11.7032  -25.3384   32.1492 C   0  0  0  0  0  0  0  0  0  0  0  0
  -10.8400  -25.0466   33.3307 C   0  0  0  0  0  0  0  0  0  0  0  0
   -9.4058  -24.9131   32.9026 C   0  0  0  0  0  0  0  0  0  0  0  0
   -9.0041  -25.5567   31.5776 C   0  0  0  0  0  0  0  0  0  0  0  0
  -12.7009  -23.4944   28.3970 C   0  0  0  0  0  0  0  0  0  0  0  0
  -11.6634  -22.4680   28.2190 C   0  0  0  0  0  0  0  0  0  0  0  0
  -11.3122  -21.8674   29.3547 C   0  0  0  0  0  0  0  0  0  0  0  0
  -11.9760  -22.1308   30.5267 N   0  0  0  0  0  0  0  0  0  0  0  0
  -11.7083  -21.7320   31.8062 C   0  0  0  0  0  0  0  0  0  0  0  0
  -12.8137  -22.0992   32.5269 C   0  0  0  0  0  0  0  0  0  0  0  0
  -13.7070  -22.7387   31.7139 N   0  0  0  0  0  0  0  0  0  0  0  0
  -13.1421  -22.8680   30.5326 C   0  0  0  0  0  0  0  0  0  0  0  0
  -13.4642  -23.6403   29.4427 N   0  0  0  0  0  0  0  0  0  0  0  0
  -12.6199  -25.5190   29.3312 H   0  0  0  0  0  0  0  0  0  0  0  0
  -12.9122  -27.8114   28.1490 H   0  0  0  0  0  0  0  0  0  0  0  0
  -11.4283  -27.2631   27.2352 H   0  0  0  0  0  0  0  0  0  0  0  0
   -9.2148  -26.5384   28.9097 H   0  0  0  0  0  0  0  0  0  0  0  0
  -12.7370  -25.3838   32.4456 H   0  0  0  0  0  0  0  0  0  0  0  0
  -11.6184  -24.4972   31.4712 H   0  0  0  0  0  0  0  0  0  0  0  0
  -11.2065  -24.1338   33.8029 H   0  0  0  0  0  0  0  0  0  0  0  0
  -10.8925  -25.8203   34.0989 H   0  0  0  0  0  0  0  0  0  0  0  0
   -9.1294  -23.8564   32.8795 H   0  0  0  0  0  0  0  0  0  0  0  0
   -8.8299  -25.3765   33.7036 H   0  0  0  0  0  0  0  0  0  0  0  0
   -8.8796  -24.7889   30.8290 H   0  0  0  0  0  0  0  0  0  0  0  0
   -8.0666  -26.0653   31.7347 H   0  0  0  0  0  0  0  0  0  0  0  0
  -11.2325  -22.2997   27.2491 H   0  0  0  0  0  0  0  0  0  0  0  0
  -10.5475  -21.1225   29.3978 H   0  0  0  0  0  0  0  0  0  0  0  0
  -10.8180  -21.1843   32.0661 H   0  0  0  0  0  0  0  0  0  0  0  0
  -13.0237  -21.9370   33.5761 H   0  0  0  0  0  0  0  0  0  0  0  0
  1  2  2  0
  2  3  1  0
  3  4  1  0
  4  5  1  0
  5  6  2  0
  6  7  1  0
  7  8  1  0
  8  9  2  0
  8 10  1  0
 10 11  1  0
 11 12  1  0
 12 13  1  0
  2 14  1  0
 14 15  1  0
 15 16  2  0
 16 17  1  0
 17 18  1  0
 18 19  2  0
 19 20  1  0
 20 21  2  0
 21 22  1  0
  9  5  1  0
 22 14  2  0
 13  7  1  0
 21 17  1  0
  3 23  1  0
  4 24  1  0
  4 25  1  0
  6 26  1  0
 10 27  1  0
 10 28  1  0
 11 29  1  0
 11 30  1  0
 12 31  1  0
 12 32  1  0
 13 33  1  0
 13 34  1  0
 15 35  1  0
 16 36  1  0
 18 37  1  0
 19 38  1  0
M  END
>  <Energy>  (1124) 
122.15897912139447

>  <compound_id>  (1124) 
62291

>  <target_id>  (1124) 
1

>  <reference_id>  (1124) 
107

>  <inspiration_ids>  (1124) 
[107, 35]

>  <energy_score>  (1124) 
27.771907165157472

>  <distance_score>  (1124) 
2.1191363131290752

>  <path>  (1124) 
/opt/xchem-fragalysis-2/maxwin/BulkDock/SCRATCH/511021/C62291-P107/C62291-P107.minimised.mol

>  <scratch_subdir>  (1124) 
/opt/xchem-fragalysis-2/maxwin/BulkDock/SCRATCH/511021/C62291-P107

>  <fragmenstein_runtime>  (1124) 
8.83033537864685

>  <fragmenstein_outcome>  (1124) 
too moved

>  <fragmenstein_mode>  (1124) 
expansion

>  <fragmenstein_error>  (1124) 


$$$$
C62291-P35
     RDKit          3D

 38 41  0  0  0  0  0  0  0  0999 V2000
  -12.9187  -25.8191   26.9172 O   0  0  0  0  0  0  0  0  0  0  0  0
  -12.9928  -25.7295   28.0702 C   0  0  0  0  0  0  0  0  0  0  0  0
  -12.9558  -26.8036   29.1492 N   0  0  0  0  0  0  0  0  0  0  0  0
  -12.7230  -28.2180   29.0516 C   0  0  0  0  0  0  0  0  0  0  0  0
  -11.3608  -28.2012   29.7350 C   0  0  0  0  0  0  0  0  0  0  0  0
  -11.1027  -28.4340   31.0794 C   0  0  0  0  0  0  0  0  0  0  0  0
  -10.2282  -27.4343   31.4275 N   0  0  0  0  0  0  0  0  0  0  0  0
  -10.0110  -26.6837   30.3137 C   0  0  0  0  0  0  0  0  0  0  0  0
  -10.4376  -27.2942   29.2407 N   0  0  0  0  0  0  0  0  0  0  0  0
   -9.6191  -25.2718   30.4356 C   0  0  0  0  0  0  0  0  0  0  0  0
  -10.1416  -24.7114   31.7593 C   0  0  0  0  0  0  0  0  0  0  0  0
   -9.5187  -25.5092   32.8578 C   0  0  0  0  0  0  0  0  0  0  0  0
   -9.9044  -26.9558   32.7526 C   0  0  0  0  0  0  0  0  0  0  0  0
  -13.0458  -24.3968   28.8287 C   0  0  0  0  0  0  0  0  0  0  0  0
  -12.0824  -23.3771   28.3192 C   0  0  0  0  0  0  0  0  0  0  0  0
  -11.6830  -22.4910   29.2404 C   0  0  0  0  0  0  0  0  0  0  0  0
  -12.2230  -22.5337   30.5155 N   0  0  0  0  0  0  0  0  0  0  0  0
  -11.8758  -21.8587   31.6554 C   0  0  0  0  0  0  0  0  0  0  0  0
  -12.7985  -22.2355   32.5976 C   0  0  0  0  0  0  0  0  0  0  0  0
  -13.6572  -23.1608   32.0767 N   0  0  0  0  0  0  0  0  0  0  0  0
  -13.2697  -23.3835   30.8399 C   0  0  0  0  0  0  0  0  0  0  0  0
  -13.6605  -24.3643   29.9752 N   0  0  0  0  0  0  0  0  0  0  0  0
  -12.9642  -26.3627   30.0674 H   0  0  0  0  0  0  0  0  0  0  0  0
  -13.4751  -28.7642   29.6230 H   0  0  0  0  0  0  0  0  0  0  0  0
  -12.6574  -28.5352   28.0097 H   0  0  0  0  0  0  0  0  0  0  0  0
  -11.6483  -29.0055   31.8153 H   0  0  0  0  0  0  0  0  0  0  0  0
  -10.0074  -24.7101   29.5870 H   0  0  0  0  0  0  0  0  0  0  0  0
   -8.5377  -25.2401   30.3856 H   0  0  0  0  0  0  0  0  0  0  0  0
   -9.8799  -23.6687   31.9035 H   0  0  0  0  0  0  0  0  0  0  0  0
  -11.2276  -24.8080   31.8210 H   0  0  0  0  0  0  0  0  0  0  0  0
   -8.4392  -25.4756   32.7111 H   0  0  0  0  0  0  0  0  0  0  0  0
   -9.7404  -25.1026   33.8454 H   0  0  0  0  0  0  0  0  0  0  0  0
   -8.9995  -27.4747   33.0245 H   0  0  0  0  0  0  0  0  0  0  0  0
  -10.7352  -27.1914   33.4180 H   0  0  0  0  0  0  0  0  0  0  0  0
  -11.7103  -23.4319   27.3048 H   0  0  0  0  0  0  0  0  0  0  0  0
  -10.9485  -21.7276   29.0276 H   0  0  0  0  0  0  0  0  0  0  0  0
  -11.0352  -21.1838   31.7031 H   0  0  0  0  0  0  0  0  0  0  0  0
  -12.8887  -21.9054   33.6253 H   0  0  0  0  0  0  0  0  0  0  0  0
  1  2  2  0
  2  3  1  0
  3  4  1  0
  4  5  1  0
  5  6  2  0
  6  7  1  0
  7  8  1  0
  8  9  2  0
  8 10  1  0
 10 11  1  0
 11 12  1  0
 12 13  1  0
  2 14  1  0
 14 15  1  0
 15 16  2  0
 16 17  1  0
 17 18  1  0
 18 19  2  0
 19 20  1  0
 20 21  2  0
 21 22  1  0
  9  5  1  0
 22 14  2  0
 13  7  1  0
 21 17  1  0
  3 23  1  0
  4 24  1  0
  4 25  1  0
  6 26  1  0
 10 27  1  0
 10 28  1  0
 11 29  1  0
 11 30  1  0
 12 31  1  0
 12 32  1  0
 13 33  1  0
 13 34  1  0
 15 35  1  0
 16 36  1  0
 18 37  1  0
 19 38  1  0
M  END
>  <Energy>  (1125) 
105.76547892150056

>  <compound_id>  (1125) 
62291

>  <target_id>  (1125) 
1

>  <reference_id>  (1125) 
35

>  <inspiration_ids>  (1125) 
[107, 35]

>  <energy_score>  (1125) 
11.378406965263025

>  <distance_score>  (1125) 
2.1654912635437484

>  <path>  (1125) 
/opt/xchem-fragalysis-2/maxwin/BulkDock/SCRATCH/511021/C62291-P35/C62291-P35.minimised.mol

>  <scratch_subdir>  (1125) 
/opt/xchem-fragalysis-2/maxwin/BulkDock/SCRATCH/511021/C62291-P35

>  <fragmenstein_runtime>  (1125) 
3.180732250213623

>  <fragmenstein_outcome>  (1125) 
too moved

>  <fragmenstein_mode>  (1125) 
expansion

>  <fragmenstein_error>  (1125) 


$$$$
C62292-P107
     RDKit          3D

 38 41  0  0  0  0  0  0  0  0999 V2000
  -10.8860  -24.6109   25.8809 O   0  0  0  0  0  0  0  0  0  0  0  0
  -10.8816  -24.3653   27.0401 C   0  0  0  0  0  0  0  0  0  0  0  0
  -10.2631  -25.0216   28.1215 N   0  0  0  0  0  0  0  0  0  0  0  0
   -9.5360  -26.2298   28.1814 C   0  0  0  0  0  0  0  0  0  0  0  0
  -10.2829  -26.8001   29.3289 C   0  0  0  0  0  0  0  0  0  0  0  0
  -11.5187  -27.3978   29.2516 C   0  0  0  0  0  0  0  0  0  0  0  0
  -12.2312  -27.0944   30.3559 N   0  0  0  0  0  0  0  0  0  0  0  0
  -11.4682  -26.3099   31.0861 C   0  0  0  0  0  0  0  0  0  0  0  0
  -10.1780  -26.4237   30.6569 N   0  0  0  0  0  0  0  0  0  0  0  0
   -9.1051  -25.7271   31.3191 C   0  0  0  0  0  0  0  0  0  0  0  0
   -9.4825  -24.9405   32.5589 C   0  0  0  0  0  0  0  0  0  0  0  0
  -10.7834  -24.2520   32.3226 C   0  0  0  0  0  0  0  0  0  0  0  0
  -11.8794  -25.2435   32.0413 C   0  0  0  0  0  0  0  0  0  0  0  0
  -11.6680  -23.2762   27.7436 C   0  0  0  0  0  0  0  0  0  0  0  0
  -12.9693  -23.9041   28.0756 C   0  0  0  0  0  0  0  0  0  0  0  0
  -13.3942  -23.6058   29.2979 C   0  0  0  0  0  0  0  0  0  0  0  0
  -12.7440  -22.6707   30.0622 N   0  0  0  0  0  0  0  0  0  0  0  0
  -12.9978  -22.2658   31.3438 C   0  0  0  0  0  0  0  0  0  0  0  0
  -11.9021  -21.5168   31.6870 C   0  0  0  0  0  0  0  0  0  0  0  0
  -11.0879  -21.3249   30.5937 N   0  0  0  0  0  0  0  0  0  0  0  0
  -11.6134  -22.0114   29.6001 C   0  0  0  0  0  0  0  0  0  0  0  0
  -11.0563  -22.3268   28.3859 N   0  0  0  0  0  0  0  0  0  0  0  0
  -10.4092  -24.4772   28.9665 H   0  0  0  0  0  0  0  0  0  0  0  0
   -8.5108  -25.9955   28.3850 H   0  0  0  0  0  0  0  0  0  0  0  0
   -9.6669  -26.7947   27.2602 H   0  0  0  0  0  0  0  0  0  0  0  0
  -11.9875  -27.8419   28.3839 H   0  0  0  0  0  0  0  0  0  0  0  0
   -8.7126  -25.0532   30.5700 H   0  0  0  0  0  0  0  0  0  0  0  0
   -8.3518  -26.4512   31.5885 H   0  0  0  0  0  0  0  0  0  0  0  0
   -9.5523  -25.5597   33.4548 H   0  0  0  0  0  0  0  0  0  0  0  0
   -8.7301  -24.1782   32.7310 H   0  0  0  0  0  0  0  0  0  0  0  0
  -11.0518  -23.6169   33.1696 H   0  0  0  0  0  0  0  0  0  0  0  0
  -10.6306  -23.6343   31.4496 H   0  0  0  0  0  0  0  0  0  0  0  0
  -12.2139  -25.5631   33.0064 H   0  0  0  0  0  0  0  0  0  0  0  0
  -12.7449  -24.7437   31.6275 H   0  0  0  0  0  0  0  0  0  0  0  0
  -13.3934  -24.6767   27.4474 H   0  0  0  0  0  0  0  0  0  0  0  0
  -14.2397  -24.0774   29.7327 H   0  0  0  0  0  0  0  0  0  0  0  0
  -13.8558  -22.6147   31.9050 H   0  0  0  0  0  0  0  0  0  0  0  0
  -11.6735  -21.0724   32.6475 H   0  0  0  0  0  0  0  0  0  0  0  0
  1  2  2  0
  2  3  1  0
  3  4  1  0
  4  5  1  0
  5  6  2  0
  6  7  1  0
  7  8  2  0
  8  9  1  0
  9 10  1  0
 10 11  1  0
 11 12  1  0
 12 13  1  0
  2 14  1  0
 14 15  1  0
 15 16  2  0
 16 17  1  0
 17 18  1  0
 18 19  2  0
 19 20  1  0
 20 21  2  0
 21 22  1  0
  9  5  1  0
 22 14  2  0
 13  8  1  0
 21 17  1  0
  3 23  1  0
  4 24  1  0
  4 25  1  0
  6 26  1  0
 10 27  1  0
 10 28  1  0
 11 29  1  0
 11 30  1  0
 12 31  1  0
 12 32  1  0
 13 33  1  0
 13 34  1  0
 15 35  1  0
 16 36  1  0
 18 37  1  0
 19 38  1  0
M  END
>  <Energy>  (1126) 
95.082801497971957

>  <compound_id>  (1126) 
62292

>  <target_id>  (1126) 
1

>  <reference_id>  (1126) 
107

>  <inspiration_ids>  (1126) 
[107, 35]

>  <energy_score>  (1126) 
26.833425853840595

>  <distance_score>  (1126) 
2.0898987616304376

>  <path>  (1126) 
/opt/xchem-fragalysis-2/maxwin/BulkDock/SCRATCH/511021/C62292-P107/C62292-P107.minimised.mol

>  <scratch_subdir>  (1126) 
/opt/xchem-fragalysis-2/maxwin/BulkDock/SCRATCH/511021/C62292-P107

>  <fragmenstein_runtime>  (1126) 
6.87670373916626

>  <fragmenstein_outcome>  (1126) 
too moved

>  <fragmenstein_mode>  (1126) 
expansion

>  <fragmenstein_error>  (1126) 


$$$$
C62292-P35
     RDKit          3D

 38 41  0  0  0  0  0  0  0  0999 V2000
  -14.0362  -26.2835   28.7343 O   0  0  0  0  0  0  0  0  0  0  0  0
  -13.7121  -26.0043   29.8140 C   0  0  0  0  0  0  0  0  0  0  0  0
  -13.1528  -26.8850   30.9484 N   0  0  0  0  0  0  0  0  0  0  0  0
  -12.7882  -28.2709   30.9570 C   0  0  0  0  0  0  0  0  0  0  0  0
  -11.3724  -28.1391   30.5454 C   0  0  0  0  0  0  0  0  0  0  0  0
  -10.8731  -28.2262   29.2609 C   0  0  0  0  0  0  0  0  0  0  0  0
   -9.8933  -27.3014   29.0672 N   0  0  0  0  0  0  0  0  0  0  0  0
   -9.8225  -26.6735   30.2153 C   0  0  0  0  0  0  0  0  0  0  0  0
  -10.4322  -27.3860   31.2045 N   0  0  0  0  0  0  0  0  0  0  0  0
  -10.3602  -26.9633   32.5845 C   0  0  0  0  0  0  0  0  0  0  0  0
  -10.3395  -25.4660   32.7418 C   0  0  0  0  0  0  0  0  0  0  0  0
   -9.2108  -24.9444   31.9000 C   0  0  0  0  0  0  0  0  0  0  0  0
   -9.4147  -25.2806   30.4339 C   0  0  0  0  0  0  0  0  0  0  0  0
  -13.6704  -24.5778   30.3563 C   0  0  0  0  0  0  0  0  0  0  0  0
  -14.6680  -24.3463   31.4206 C   0  0  0  0  0  0  0  0  0  0  0  0
  -14.2923  -23.4383   32.3229 C   0  0  0  0  0  0  0  0  0  0  0  0
  -13.1162  -22.7480   32.1392 N   0  0  0  0  0  0  0  0  0  0  0  0
  -12.4527  -21.9260   33.0015 C   0  0  0  0  0  0  0  0  0  0  0  0
  -11.3558  -21.4990   32.3028 C   0  0  0  0  0  0  0  0  0  0  0  0
  -11.3661  -22.0004   31.0253 N   0  0  0  0  0  0  0  0  0  0  0  0
  -12.3759  -22.8427   30.9687 C   0  0  0  0  0  0  0  0  0  0  0  0
  -12.6576  -23.8157   30.0496 N   0  0  0  0  0  0  0  0  0  0  0  0
  -13.0521  -26.3264   31.7954 H   0  0  0  0  0  0  0  0  0  0  0  0
  -12.8971  -28.6789   31.9619 H   0  0  0  0  0  0  0  0  0  0  0  0
  -13.3916  -28.8201   30.2308 H   0  0  0  0  0  0  0  0  0  0  0  0
  -11.3200  -28.7283   28.4144 H   0  0  0  0  0  0  0  0  0  0  0  0
  -11.1531  -27.4426   33.1528 H   0  0  0  0  0  0  0  0  0  0  0  0
   -9.3933  -27.3174   32.9445 H   0  0  0  0  0  0  0  0  0  0  0  0
  -11.2754  -25.0089   32.4247 H   0  0  0  0  0  0  0  0  0  0  0  0
  -10.1483  -25.1913   33.7776 H   0  0  0  0  0  0  0  0  0  0  0  0
   -9.1486  -23.8795   32.0824 H   0  0  0  0  0  0  0  0  0  0  0  0
   -8.2750  -25.3956   32.2348 H   0  0  0  0  0  0  0  0  0  0  0  0
  -10.1803  -24.6349   29.9987 H   0  0  0  0  0  0  0  0  0  0  0  0
   -8.5152  -25.1385   29.8530 H   0  0  0  0  0  0  0  0  0  0  0  0
  -15.5682  -24.9380   31.4849 H   0  0  0  0  0  0  0  0  0  0  0  0
  -14.8725  -23.2113   33.2078 H   0  0  0  0  0  0  0  0  0  0  0  0
  -12.8033  -21.7284   34.0045 H   0  0  0  0  0  0  0  0  0  0  0  0
  -10.5699  -20.8338   32.6398 H   0  0  0  0  0  0  0  0  0  0  0  0
  1  2  2  0
  2  3  1  0
  3  4  1  0
  4  5  1  0
  5  6  2  0
  6  7  1  0
  7  8  2  0
  8  9  1  0
  9 10  1  0
 10 11  1  0
 11 12  1  0
 12 13  1  0
  2 14  1  0
 14 15  1  0
 15 16  2  0
 16 17  1  0
 17 18  1  0
 18 19  2  0
 19 20  1  0
 20 21  2  0
 21 22  1  0
  9  5  1  0
 22 14  2  0
 13  8  1  0
 21 17  1  0
  3 23  1  0
  4 24  1  0
  4 25  1  0
  6 26  1  0
 10 27  1  0
 10 28  1  0
 11 29  1  0
 11 30  1  0
 12 31  1  0
 12 32  1  0
 13 33  1  0
 13 34  1  0
 15 35  1  0
 16 36  1  0
 18 37  1  0
 19 38  1  0
M  END
>  <Energy>  (1127) 
86.905968687124783

>  <compound_id>  (1127) 
62292

>  <target_id>  (1127) 
1

>  <reference_id>  (1127) 
35

>  <inspiration_ids>  (1127) 
[107, 35]

>  <energy_score>  (1127) 
22.243783052586423

>  <distance_score>  (1127) 
2.620300280297157

>  <path>  (1127) 
/opt/xchem-fragalysis-2/maxwin/BulkDock/SCRATCH/511021/C62292-P35/C62292-P35.minimised.mol

>  <scratch_subdir>  (1127) 
/opt/xchem-fragalysis-2/maxwin/BulkDock/SCRATCH/511021/C62292-P35

>  <fragmenstein_runtime>  (1127) 
4.205700635910034

>  <fragmenstein_outcome>  (1127) 
too moved

>  <fragmenstein_mode>  (1127) 
expansion

>  <fragmenstein_error>  (1127) 


$$$$
C62293-P107
     RDKit          3D

 41 44  0  0  0  0  0  0  0  0999 V2000
  -13.8194  -24.2628   28.6134 O   0  0  0  0  0  0  0  0  0  0  0  0
  -12.7813  -23.7503   28.3273 C   0  0  0  0  0  0  0  0  0  0  0  0
  -11.8712  -24.0206   27.2600 N   0  0  0  0  0  0  0  0  0  0  0  0
  -11.8716  -25.0437   26.2671 C   0  0  0  0  0  0  0  0  0  0  0  0
  -11.5745  -26.3974   26.9261 C   0  0  0  0  0  0  0  0  0  0  0  0
  -11.0508  -26.3081   28.3152 C   0  0  0  0  0  0  0  0  0  0  0  0
   -9.8060  -25.9720   28.7971 C   0  0  0  0  0  0  0  0  0  0  0  0
   -9.9855  -25.8108   30.1326 N   0  0  0  0  0  0  0  0  0  0  0  0
  -11.2850  -26.0162   30.4052 C   0  0  0  0  0  0  0  0  0  0  0  0
  -11.9385  -26.4299   29.3517 N   0  0  0  0  0  0  0  0  0  0  0  0
  -11.6962  -25.9441   31.7989 C   0  0  0  0  0  0  0  0  0  0  0  0
  -10.9544  -24.9524   32.6606 C   0  0  0  0  0  0  0  0  0  0  0  0
   -9.4687  -25.0128   32.4783 C   0  0  0  0  0  0  0  0  0  0  0  0
   -9.0479  -25.7382   31.2164 C   0  0  0  0  0  0  0  0  0  0  0  0
  -12.2188  -22.7389   29.1954 C   0  0  0  0  0  0  0  0  0  0  0  0
  -11.2514  -21.8063   28.9325 C   0  0  0  0  0  0  0  0  0  0  0  0
  -10.8240  -21.1829   30.0546 N   0  0  0  0  0  0  0  0  0  0  0  0
  -11.5306  -21.6830   31.0325 C   0  0  0  0  0  0  0  0  0  0  0  0
  -11.4800  -21.3702   32.3521 N   0  0  0  0  0  0  0  0  0  0  0  0
  -12.4938  -21.7496   33.0659 C   0  0  0  0  0  0  0  0  0  0  0  0
  -13.6785  -22.4844   32.5750 C   0  0  0  0  0  0  0  0  0  0  0  0
  -13.6068  -22.8148   31.2832 C   0  0  0  0  0  0  0  0  0  0  0  0
  -12.5251  -22.4859   30.5133 N   0  0  0  0  0  0  0  0  0  0  0  0
  -11.0536  -23.4472   27.3734 H   0  0  0  0  0  0  0  0  0  0  0  0
  -11.1047  -24.7905   25.5302 H   0  0  0  0  0  0  0  0  0  0  0  0
  -12.8459  -25.0638   25.7691 H   0  0  0  0  0  0  0  0  0  0  0  0
  -12.5374  -26.9072   27.0114 H   0  0  0  0  0  0  0  0  0  0  0  0
  -10.9167  -26.9963   26.2902 H   0  0  0  0  0  0  0  0  0  0  0  0
   -8.8627  -25.8293   28.3103 H   0  0  0  0  0  0  0  0  0  0  0  0
  -11.5004  -26.9541   32.1527 H   0  0  0  0  0  0  0  0  0  0  0  0
  -12.7265  -25.6523   31.8423 H   0  0  0  0  0  0  0  0  0  0  0  0
  -11.2203  -25.0697   33.7163 H   0  0  0  0  0  0  0  0  0  0  0  0
  -11.2652  -23.9542   32.3873 H   0  0  0  0  0  0  0  0  0  0  0  0
   -9.0824  -23.9941   32.4863 H   0  0  0  0  0  0  0  0  0  0  0  0
   -9.0105  -25.4776   33.3522 H   0  0  0  0  0  0  0  0  0  0  0  0
   -8.8080  -26.7755   31.4232 H   0  0  0  0  0  0  0  0  0  0  0  0
   -8.1739  -25.2724   30.8382 H   0  0  0  0  0  0  0  0  0  0  0  0
  -10.7974  -21.5875   27.9816 H   0  0  0  0  0  0  0  0  0  0  0  0
  -12.5032  -21.4936   34.1326 H   0  0  0  0  0  0  0  0  0  0  0  0
  -14.5100  -22.7208   33.2220 H   0  0  0  0  0  0  0  0  0  0  0  0
  -14.3858  -23.3009   30.7514 H   0  0  0  0  0  0  0  0  0  0  0  0
  1  2  2  0
  2  3  1  0
  3  4  1  0
  4  5  1  0
  5  6  1  0
  6  7  2  0
  7  8  1  0
  8  9  1  0
  9 10  2  0
  9 11  1  0
 11 12  1  0
 12 13  1  0
 13 14  1  0
  2 15  1  0
 15 16  2  0
 16 17  1  0
 17 18  2  0
 18 19  1  0
 19 20  2  0
 20 21  1  0
 21 22  2  0
 22 23  1  0
 10  6  1  0
 23 15  1  0
 14  8  1  0
 23 18  1  0
  3 24  1  0
  4 25  1  0
  4 26  1  0
  5 27  1  0
  5 28  1  0
  7 29  1  0
 11 30  1  0
 11 31  1  0
 12 32  1  0
 12 33  1  0
 13 34  1  0
 13 35  1  0
 14 36  1  0
 14 37  1  0
 16 38  1  0
 20 39  1  0
 21 40  1  0
 22 41  1  0
M  END
>  <Energy>  (1128) 
26.604095141315877

>  <compound_id>  (1128) 
62293

>  <target_id>  (1128) 
1

>  <reference_id>  (1128) 
107

>  <inspiration_ids>  (1128) 
[107, 35]

>  <energy_score>  (1128) 
-18.162231165578987

>  <distance_score>  (1128) 
3.8274999406661316

>  <path>  (1128) 
/opt/xchem-fragalysis-2/maxwin/BulkDock/SCRATCH/511021/C62293-P107/C62293-P107.minimised.mol

>  <scratch_subdir>  (1128) 
/opt/xchem-fragalysis-2/maxwin/BulkDock/SCRATCH/511021/C62293-P107

>  <fragmenstein_runtime>  (1128) 
8.053056001663208

>  <fragmenstein_outcome>  (1128) 
too moved

>  <fragmenstein_mode>  (1128) 
expansion

>  <fragmenstein_error>  (1128) 


$$$$
C62293-P35
     RDKit          3D

 41 44  0  0  0  0  0  0  0  0999 V2000
  -10.0377  -24.8167   28.5370 O   0  0  0  0  0  0  0  0  0  0  0  0
  -11.1787  -24.7557   28.3370 C   0  0  0  0  0  0  0  0  0  0  0  0
  -12.1320  -25.7777   27.7209 N   0  0  0  0  0  0  0  0  0  0  0  0
  -11.9041  -27.1367   27.3034 C   0  0  0  0  0  0  0  0  0  0  0  0
  -12.0746  -28.1318   28.4800 C   0  0  0  0  0  0  0  0  0  0  0  0
  -11.3874  -27.6941   29.7357 C   0  0  0  0  0  0  0  0  0  0  0  0
  -10.1723  -28.0250   30.2929 C   0  0  0  0  0  0  0  0  0  0  0  0
   -9.9964  -27.1060   31.2753 N   0  0  0  0  0  0  0  0  0  0  0  0
  -11.0371  -26.2347   31.2699 C   0  0  0  0  0  0  0  0  0  0  0  0
  -11.9734  -26.6888   30.4721 N   0  0  0  0  0  0  0  0  0  0  0  0
  -10.9475  -24.9243   31.9815 C   0  0  0  0  0  0  0  0  0  0  0  0
   -9.8778  -24.8488   33.0531 C   0  0  0  0  0  0  0  0  0  0  0  0
   -9.3178  -26.2236   33.4046 C   0  0  0  0  0  0  0  0  0  0  0  0
   -8.8570  -26.8562   32.1070 C   0  0  0  0  0  0  0  0  0  0  0  0
  -11.8600  -23.5822   28.8172 C   0  0  0  0  0  0  0  0  0  0  0  0
  -11.3851  -22.2883   28.8218 C   0  0  0  0  0  0  0  0  0  0  0  0
  -11.8822  -21.5551   29.8536 N   0  0  0  0  0  0  0  0  0  0  0  0
  -12.6714  -22.3800   30.4964 C   0  0  0  0  0  0  0  0  0  0  0  0
  -13.3388  -22.1507   31.6513 N   0  0  0  0  0  0  0  0  0  0  0  0
  -14.1612  -23.0812   32.0152 C   0  0  0  0  0  0  0  0  0  0  0  0
  -14.4340  -24.3551   31.3114 C   0  0  0  0  0  0  0  0  0  0  0  0
  -13.7300  -24.5392   30.1961 C   0  0  0  0  0  0  0  0  0  0  0  0
  -12.8209  -23.5758   29.7985 N   0  0  0  0  0  0  0  0  0  0  0  0
  -13.0769  -25.4292   27.7715 H   0  0  0  0  0  0  0  0  0  0  0  0
  -10.8798  -27.1968   26.9225 H   0  0  0  0  0  0  0  0  0  0  0  0
  -12.6057  -27.3611   26.4988 H   0  0  0  0  0  0  0  0  0  0  0  0
  -13.1459  -28.2245   28.7020 H   0  0  0  0  0  0  0  0  0  0  0  0
  -11.7376  -29.1220   28.1698 H   0  0  0  0  0  0  0  0  0  0  0  0
   -9.4056  -28.7297   30.0201 H   0  0  0  0  0  0  0  0  0  0  0  0
  -11.8986  -24.6218   32.4000 H   0  0  0  0  0  0  0  0  0  0  0  0
  -10.6881  -24.1641   31.2442 H   0  0  0  0  0  0  0  0  0  0  0  0
  -10.2342  -24.3044   33.9296 H   0  0  0  0  0  0  0  0  0  0  0  0
   -9.0860  -24.2219   32.6325 H   0  0  0  0  0  0  0  0  0  0  0  0
   -8.4830  -26.1456   34.0942 H   0  0  0  0  0  0  0  0  0  0  0  0
  -10.0893  -26.8273   33.8901 H   0  0  0  0  0  0  0  0  0  0  0  0
   -8.3077  -27.7846   32.2140 H   0  0  0  0  0  0  0  0  0  0  0  0
   -8.2851  -26.1143   31.5569 H   0  0  0  0  0  0  0  0  0  0  0  0
  -10.5973  -21.8943   28.1991 H   0  0  0  0  0  0  0  0  0  0  0  0
  -14.7322  -22.9395   32.9481 H   0  0  0  0  0  0  0  0  0  0  0  0
  -15.1349  -25.0609   31.7274 H   0  0  0  0  0  0  0  0  0  0  0  0
  -13.8296  -25.4531   29.6350 H   0  0  0  0  0  0  0  0  0  0  0  0
  1  2  2  0
  2  3  1  0
  3  4  1  0
  4  5  1  0
  5  6  1  0
  6  7  2  0
  7  8  1  0
  8  9  1  0
  9 10  2  0
  9 11  1  0
 11 12  1  0
 12 13  1  0
 13 14  1  0
  2 15  1  0
 15 16  2  0
 16 17  1  0
 17 18  2  0
 18 19  1  0
 19 20  2  0
 20 21  1  0
 21 22  2  0
 22 23  1  0
 10  6  1  0
 23 15  1  0
 14  8  1  0
 23 18  1  0
  3 24  1  0
  4 25  1  0
  4 26  1  0
  5 27  1  0
  5 28  1  0
  7 29  1  0
 11 30  1  0
 11 31  1  0
 12 32  1  0
 12 33  1  0
 13 34  1  0
 13 35  1  0
 14 36  1  0
 14 37  1  0
 16 38  1  0
 20 39  1  0
 21 40  1  0
 22 41  1  0
M  END
>  <Energy>  (1129) 
35.150911431994849

>  <compound_id>  (1129) 
62293

>  <target_id>  (1129) 
1

>  <reference_id>  (1129) 
35

>  <inspiration_ids>  (1129) 
[107, 35]

>  <energy_score>  (1129) 
15.442702484769882

>  <distance_score>  (1129) 
3.2356917916297863

>  <path>  (1129) 
/opt/xchem-fragalysis-2/maxwin/BulkDock/SCRATCH/511021/C62293-P35/C62293-P35.minimised.mol

>  <scratch_subdir>  (1129) 
/opt/xchem-fragalysis-2/maxwin/BulkDock/SCRATCH/511021/C62293-P35

>  <fragmenstein_runtime>  (1129) 
7.668672561645508

>  <fragmenstein_outcome>  (1129) 
too moved

>  <fragmenstein_mode>  (1129) 
expansion

>  <fragmenstein_error>  (1129) 


$$$$
C62294-P107
     RDKit          3D

 41 44  0  0  0  0  0  0  0  0999 V2000
  -15.2322  -23.0602   33.9678 O   0  0  0  0  0  0  0  0  0  0  0  0
  -14.1196  -22.6634   33.8213 C   0  0  0  0  0  0  0  0  0  0  0  0
  -12.8710  -23.3639   33.7780 N   0  0  0  0  0  0  0  0  0  0  0  0
  -12.5915  -24.7041   33.7935 C   0  0  0  0  0  0  0  0  0  0  0  0
  -12.7302  -24.9554   32.2992 C   0  0  0  0  0  0  0  0  0  0  0  0
  -11.9204  -24.6061   31.1746 N   0  0  0  0  0  0  0  0  0  0  0  0
  -12.4754  -24.6626   29.9080 C   0  0  0  0  0  0  0  0  0  0  0  0
  -11.6142  -24.9688   28.9772 N   0  0  0  0  0  0  0  0  0  0  0  0
  -10.5338  -25.3632   29.6834 C   0  0  0  0  0  0  0  0  0  0  0  0
  -10.6903  -25.1212   31.0449 C   0  0  0  0  0  0  0  0  0  0  0  0
  -10.2103  -26.0296   32.1021 C   0  0  0  0  0  0  0  0  0  0  0  0
  -10.5299  -27.4092   31.4455 C   0  0  0  0  0  0  0  0  0  0  0  0
   -9.4520  -27.3901   30.4203 C   0  0  0  0  0  0  0  0  0  0  0  0
   -9.8000  -26.5416   29.1895 C   0  0  0  0  0  0  0  0  0  0  0  0
  -13.7127  -21.3449   33.5354 C   0  0  0  0  0  0  0  0  0  0  0  0
  -13.1778  -20.3220   34.2738 C   0  0  0  0  0  0  0  0  0  0  0  0
  -11.9110  -20.0825   33.8125 N   0  0  0  0  0  0  0  0  0  0  0  0
  -11.7526  -20.8109   32.7276 C   0  0  0  0  0  0  0  0  0  0  0  0
  -10.6879  -20.9383   31.9143 N   0  0  0  0  0  0  0  0  0  0  0  0
  -10.9701  -21.3381   30.7250 C   0  0  0  0  0  0  0  0  0  0  0  0
  -12.2095  -21.8511   30.1807 C   0  0  0  0  0  0  0  0  0  0  0  0
  -12.0881  -22.1621   28.5055 Cl  0  0  0  0  0  0  0  0  0  0  0  0
  -13.1931  -21.9524   31.0898 C   0  0  0  0  0  0  0  0  0  0  0  0
  -12.9728  -21.3591   32.3557 N   0  0  0  0  0  0  0  0  0  0  0  0
  -12.1187  -22.6967   33.7243 H   0  0  0  0  0  0  0  0  0  0  0  0
  -11.6001  -24.8460   34.2127 H   0  0  0  0  0  0  0  0  0  0  0  0
  -13.3846  -25.2199   34.3248 H   0  0  0  0  0  0  0  0  0  0  0  0
  -12.7124  -26.0148   32.1625 H   0  0  0  0  0  0  0  0  0  0  0  0
  -13.6472  -24.4598   32.0355 H   0  0  0  0  0  0  0  0  0  0  0  0
  -13.5178  -24.4440   29.7276 H   0  0  0  0  0  0  0  0  0  0  0  0
   -9.1647  -25.7610   32.3062 H   0  0  0  0  0  0  0  0  0  0  0  0
  -10.6713  -25.9970   33.0729 H   0  0  0  0  0  0  0  0  0  0  0  0
  -11.5157  -27.4828   30.9757 H   0  0  0  0  0  0  0  0  0  0  0  0
  -10.4746  -28.2816   32.0890 H   0  0  0  0  0  0  0  0  0  0  0  0
   -9.0082  -28.3114   30.1901 H   0  0  0  0  0  0  0  0  0  0  0  0
   -8.6386  -26.9859   31.0136 H   0  0  0  0  0  0  0  0  0  0  0  0
  -10.4685  -27.1160   28.5380 H   0  0  0  0  0  0  0  0  0  0  0  0
   -8.9567  -26.2333   28.5722 H   0  0  0  0  0  0  0  0  0  0  0  0
  -13.4926  -19.8700   35.2001 H   0  0  0  0  0  0  0  0  0  0  0  0
  -10.2343  -21.2165   29.9475 H   0  0  0  0  0  0  0  0  0  0  0  0
  -14.1840  -22.3460   30.8991 H   0  0  0  0  0  0  0  0  0  0  0  0
  1  2  2  0
  2  3  1  0
  3  4  1  0
  4  5  1  0
  5  6  1  0
  6  7  1  0
  7  8  2  0
  8  9  1  0
  9 10  2  0
 10 11  1  0
 11 12  1  0
 12 13  1  0
 13 14  1  0
  2 15  1  0
 15 16  2  0
 16 17  1  0
 17 18  2  0
 18 19  1  0
 19 20  2  0
 20 21  1  0
 21 22  1  0
 21 23  2  0
 23 24  1  0
 10  6  1  0
 24 15  1  0
 14  9  1  0
 24 18  1  0
  3 25  1  0
  4 26  1  0
  4 27  1  0
  5 28  1  0
  5 29  1  0
  7 30  1  0
 11 31  1  0
 11 32  1  0
 12 33  1  0
 12 34  1  0
 13 35  1  0
 13 36  1  0
 14 37  1  0
 14 38  1  0
 16 39  1  0
 20 40  1  0
 23 41  1  0
M  END
>  <Energy>  (1130) 
170.67980033688283

>  <compound_id>  (1130) 
62294

>  <target_id>  (1130) 
1

>  <reference_id>  (1130) 
107

>  <inspiration_ids>  (1130) 
[107, 35]

>  <energy_score>  (1130) 
136.87434316455716

>  <distance_score>  (1130) 
3.385132366159187

>  <path>  (1130) 
/opt/xchem-fragalysis-2/maxwin/BulkDock/SCRATCH/511021/C62294-P107/C62294-P107.minimised.mol

>  <scratch_subdir>  (1130) 
/opt/xchem-fragalysis-2/maxwin/BulkDock/SCRATCH/511021/C62294-P107

>  <fragmenstein_runtime>  (1130) 
9.05126428604126

>  <fragmenstein_outcome>  (1130) 
too moved

>  <fragmenstein_mode>  (1130) 
expansion

>  <fragmenstein_error>  (1130) 


$$$$
C62294-P35
     RDKit          3D

 41 44  0  0  0  0  0  0  0  0999 V2000
  -15.7461  -24.8632   31.9966 O   0  0  0  0  0  0  0  0  0  0  0  0
  -14.6609  -24.9481   31.5890 C   0  0  0  0  0  0  0  0  0  0  0  0
  -13.8539  -26.1788   31.1620 N   0  0  0  0  0  0  0  0  0  0  0  0
  -14.2385  -27.5498   31.0563 C   0  0  0  0  0  0  0  0  0  0  0  0
  -13.1162  -28.5094   31.5078 C   0  0  0  0  0  0  0  0  0  0  0  0
  -11.8069  -28.1459   31.0135 N   0  0  0  0  0  0  0  0  0  0  0  0
  -10.8709  -27.3564   31.6259 C   0  0  0  0  0  0  0  0  0  0  0  0
  -10.0059  -26.8891   30.7571 N   0  0  0  0  0  0  0  0  0  0  0  0
  -10.3740  -27.4434   29.5721 C   0  0  0  0  0  0  0  0  0  0  0  0
  -11.4747  -28.2461   29.7034 C   0  0  0  0  0  0  0  0  0  0  0  0
  -12.3168  -28.7968   28.6116 C   0  0  0  0  0  0  0  0  0  0  0  0
  -11.9047  -28.2268   27.2623 C   0  0  0  0  0  0  0  0  0  0  0  0
  -11.1377  -26.9214   27.3334 C   0  0  0  0  0  0  0  0  0  0  0  0
   -9.9173  -26.9788   28.2586 C   0  0  0  0  0  0  0  0  0  0  0  0
  -13.7814  -23.8027   31.4984 C   0  0  0  0  0  0  0  0  0  0  0  0
  -13.6044  -22.7813   32.4110 C   0  0  0  0  0  0  0  0  0  0  0  0
  -12.6527  -21.8933   31.9963 N   0  0  0  0  0  0  0  0  0  0  0  0
  -12.2842  -22.2992   30.8046 C   0  0  0  0  0  0  0  0  0  0  0  0
  -11.4646  -21.6674   29.9209 N   0  0  0  0  0  0  0  0  0  0  0  0
  -11.3435  -22.2255   28.7576 C   0  0  0  0  0  0  0  0  0  0  0  0
  -12.0158  -23.4505   28.2905 C   0  0  0  0  0  0  0  0  0  0  0  0
  -11.8988  -23.8525   26.6382 Cl  0  0  0  0  0  0  0  0  0  0  0  0
  -12.7996  -24.0465   29.1928 C   0  0  0  0  0  0  0  0  0  0  0  0
  -12.9424  -23.4740   30.4560 N   0  0  0  0  0  0  0  0  0  0  0  0
  -12.9055  -25.8989   30.9332 H   0  0  0  0  0  0  0  0  0  0  0  0
  -15.1517  -27.6823   31.6361 H   0  0  0  0  0  0  0  0  0  0  0  0
  -14.5387  -27.7045   30.0210 H   0  0  0  0  0  0  0  0  0  0  0  0
  -13.0083  -28.5414   32.5862 H   0  0  0  0  0  0  0  0  0  0  0  0
  -13.3306  -29.5308   31.1744 H   0  0  0  0  0  0  0  0  0  0  0  0
  -10.8884  -27.0963   32.6762 H   0  0  0  0  0  0  0  0  0  0  0  0
  -12.3160  -29.8855   28.5936 H   0  0  0  0  0  0  0  0  0  0  0  0
  -13.3622  -28.5284   28.7443 H   0  0  0  0  0  0  0  0  0  0  0  0
  -11.2901  -28.9413   26.7239 H   0  0  0  0  0  0  0  0  0  0  0  0
  -12.8145  -28.0525   26.6800 H   0  0  0  0  0  0  0  0  0  0  0  0
  -11.8416  -26.1937   27.7308 H   0  0  0  0  0  0  0  0  0  0  0  0
  -10.8724  -26.6185   26.3235 H   0  0  0  0  0  0  0  0  0  0  0  0
   -9.5153  -25.9761   28.3889 H   0  0  0  0  0  0  0  0  0  0  0  0
   -9.1485  -27.6398   27.8541 H   0  0  0  0  0  0  0  0  0  0  0  0
  -14.1155  -22.6548   33.3574 H   0  0  0  0  0  0  0  0  0  0  0  0
  -10.6767  -21.7535   28.0306 H   0  0  0  0  0  0  0  0  0  0  0  0
  -13.4125  -24.9027   28.9482 H   0  0  0  0  0  0  0  0  0  0  0  0
  1  2  2  0
  2  3  1  0
  3  4  1  0
  4  5  1  0
  5  6  1  0
  6  7  1  0
  7  8  2  0
  8  9  1  0
  9 10  2  0
 10 11  1  0
 11 12  1  0
 12 13  1  0
 13 14  1  0
  2 15  1  0
 15 16  2  0
 16 17  1  0
 17 18  2  0
 18 19  1  0
 19 20  2  0
 20 21  1  0
 21 22  1  0
 21 23  2  0
 23 24  1  0
 10  6  1  0
 24 15  1  0
 14  9  1  0
 24 18  1  0
  3 25  1  0
  4 26  1  0
  4 27  1  0
  5 28  1  0
  5 29  1  0
  7 30  1  0
 11 31  1  0
 11 32  1  0
 12 33  1  0
 12 34  1  0
 13 35  1  0
 13 36  1  0
 14 37  1  0
 14 38  1  0
 16 39  1  0
 20 40  1  0
 23 41  1  0
M  END
>  <Energy>  (1131) 
28.517689942033535

>  <compound_id>  (1131) 
62294

>  <target_id>  (1131) 
1

>  <reference_id>  (1131) 
35

>  <inspiration_ids>  (1131) 
[107, 35]

>  <energy_score>  (1131) 
-1.1457133368676296

>  <distance_score>  (1131) 
2.2900750371963294

>  <path>  (1131) 
/opt/xchem-fragalysis-2/maxwin/BulkDock/SCRATCH/511021/C62294-P35/C62294-P35.minimised.mol

>  <scratch_subdir>  (1131) 
/opt/xchem-fragalysis-2/maxwin/BulkDock/SCRATCH/511021/C62294-P35

>  <fragmenstein_runtime>  (1131) 
4.745927572250366

>  <fragmenstein_outcome>  (1131) 
too moved

>  <fragmenstein_mode>  (1131) 
expansion

>  <fragmenstein_error>  (1131) 


$$$$
C62280-P107
     RDKit          3D

 38 41  0  0  0  0  0  0  0  0999 V2000
  -12.4586  -25.1961   32.8043 O   0  0  0  0  0  0  0  0  0  0  0  0
  -12.5560  -25.2931   31.6184 C   0  0  0  0  0  0  0  0  0  0  0  0
  -12.0486  -26.2722   30.7226 N   0  0  0  0  0  0  0  0  0  0  0  0
  -11.1774  -27.3927   30.9431 C   0  0  0  0  0  0  0  0  0  0  0  0
   -9.9512  -26.7411   30.3459 C   0  0  0  0  0  0  0  0  0  0  0  0
   -9.9009  -26.1396   29.0809 C   0  0  0  0  0  0  0  0  0  0  0  0
  -10.1148  -24.7738   29.2803 N   0  0  0  0  0  0  0  0  0  0  0  0
   -9.9842  -24.6172   30.5948 C   0  0  0  0  0  0  0  0  0  0  0  0
   -9.3239  -25.7224   31.0250 N   0  0  0  0  0  0  0  0  0  0  0  0
   -8.5994  -25.6165   32.2450 C   0  0  0  0  0  0  0  0  0  0  0  0
   -9.5450  -25.2497   33.3477 C   0  0  0  0  0  0  0  0  0  0  0  0
   -9.9835  -23.8434   33.0119 C   0  0  0  0  0  0  0  0  0  0  0  0
  -10.3910  -23.5619   31.6102 C   0  0  0  0  0  0  0  0  0  0  0  0
  -13.2196  -24.1742   30.9219 C   0  0  0  0  0  0  0  0  0  0  0  0
  -13.6630  -23.0345   31.5881 C   0  0  0  0  0  0  0  0  0  0  0  0
  -13.2079  -21.9395   30.9296 N   0  0  0  0  0  0  0  0  0  0  0  0
  -12.6477  -22.3920   29.8299 C   0  0  0  0  0  0  0  0  0  0  0  0
  -11.9301  -21.7195   28.8996 N   0  0  0  0  0  0  0  0  0  0  0  0
  -11.7393  -22.3612   27.7878 C   0  0  0  0  0  0  0  0  0  0  0  0
  -12.2238  -23.7168   27.4370 C   0  0  0  0  0  0  0  0  0  0  0  0
  -11.9004  -24.3901   25.9136 Cl  0  0  0  0  0  0  0  0  0  0  0  0
  -12.8703  -24.3524   28.4148 C   0  0  0  0  0  0  0  0  0  0  0  0
  -12.9921  -23.7230   29.6460 N   0  0  0  0  0  0  0  0  0  0  0  0
  -12.2530  -25.9945   29.7899 H   0  0  0  0  0  0  0  0  0  0  0  0
  -11.0560  -27.6215   31.9961 H   0  0  0  0  0  0  0  0  0  0  0  0
  -11.5418  -28.2369   30.3654 H   0  0  0  0  0  0  0  0  0  0  0  0
  -10.1069  -26.5796   28.1143 H   0  0  0  0  0  0  0  0  0  0  0  0
   -7.9092  -24.7919   32.1290 H   0  0  0  0  0  0  0  0  0  0  0  0
   -7.9106  -26.4286   32.3486 H   0  0  0  0  0  0  0  0  0  0  0  0
   -9.0589  -25.2732   34.3234 H   0  0  0  0  0  0  0  0  0  0  0  0
  -10.3889  -25.9314   33.4235 H   0  0  0  0  0  0  0  0  0  0  0  0
  -10.8492  -23.5611   33.6202 H   0  0  0  0  0  0  0  0  0  0  0  0
   -9.1347  -23.1883   33.2111 H   0  0  0  0  0  0  0  0  0  0  0  0
  -10.2933  -22.4953   31.3972 H   0  0  0  0  0  0  0  0  0  0  0  0
  -11.4236  -23.4821   31.7171 H   0  0  0  0  0  0  0  0  0  0  0  0
  -14.0177  -22.9732   32.6106 H   0  0  0  0  0  0  0  0  0  0  0  0
  -11.2290  -21.8229   26.9940 H   0  0  0  0  0  0  0  0  0  0  0  0
  -13.2473  -25.3538   28.2882 H   0  0  0  0  0  0  0  0  0  0  0  0
  1  2  2  0
  2  3  1  0
  3  4  1  0
  4  5  1  0
  5  6  2  0
  6  7  1  0
  7  8  2  0
  8  9  1  0
  9 10  1  0
 10 11  1  0
 11 12  1  0
 12 13  1  0
  2 14  1  0
 14 15  2  0
 15 16  1  0
 16 17  2  0
 17 18  1  0
 18 19  2  0
 19 20  1  0
 20 21  1  0
 20 22  2  0
 22 23  1  0
  9  5  1  0
 23 14  1  0
 13  8  1  0
 23 17  1  0
  3 24  1  0
  4 25  1  0
  4 26  1  0
  6 27  1  0
 10 28  1  0
 10 29  1  0
 11 30  1  0
 11 31  1  0
 12 32  1  0
 12 33  1  0
 13 34  1  0
 13 35  1  0
 15 36  1  0
 19 37  1  0
 22 38  1  0
M  END
>  <Energy>  (1132) 
109.1019361776282

>  <compound_id>  (1132) 
62280

>  <target_id>  (1132) 
1

>  <reference_id>  (1132) 
107

>  <inspiration_ids>  (1132) 
[107, 35]

>  <energy_score>  (1132) 
106.94285726255649

>  <distance_score>  (1132) 
2.0634373026051183

>  <path>  (1132) 
/opt/xchem-fragalysis-2/maxwin/BulkDock/SCRATCH/511021/C62280-P107/C62280-P107.minimised.mol

>  <scratch_subdir>  (1132) 
/opt/xchem-fragalysis-2/maxwin/BulkDock/SCRATCH/511021/C62280-P107

>  <fragmenstein_runtime>  (1132) 
5.182262897491455

>  <fragmenstein_outcome>  (1132) 
too moved

>  <fragmenstein_mode>  (1132) 
expansion

>  <fragmenstein_error>  (1132) 


$$$$
C62280-P35
     RDKit          3D

 38 41  0  0  0  0  0  0  0  0999 V2000
  -11.9117  -26.0286   31.7857 O   0  0  0  0  0  0  0  0  0  0  0  0
  -12.7705  -25.9565   31.0202 C   0  0  0  0  0  0  0  0  0  0  0  0
  -13.3575  -27.0097   30.0985 N   0  0  0  0  0  0  0  0  0  0  0  0
  -12.9471  -28.3703   29.8487 C   0  0  0  0  0  0  0  0  0  0  0  0
  -11.5646  -28.0959   29.3066 C   0  0  0  0  0  0  0  0  0  0  0  0
  -11.1824  -27.7133   28.0358 C   0  0  0  0  0  0  0  0  0  0  0  0
  -10.2631  -26.6933   28.1170 N   0  0  0  0  0  0  0  0  0  0  0  0
   -9.9953  -26.5758   29.3986 C   0  0  0  0  0  0  0  0  0  0  0  0
  -10.4918  -27.6527   30.0490 N   0  0  0  0  0  0  0  0  0  0  0  0
  -10.1262  -27.9846   31.3799 C   0  0  0  0  0  0  0  0  0  0  0  0
   -9.3089  -26.9501   32.1640 C   0  0  0  0  0  0  0  0  0  0  0  0
   -9.2785  -25.5336   31.6211 C   0  0  0  0  0  0  0  0  0  0  0  0
   -9.3668  -25.4460   30.1079 C   0  0  0  0  0  0  0  0  0  0  0  0
  -13.3008  -24.6336   30.8471 C   0  0  0  0  0  0  0  0  0  0  0  0
  -13.5539  -23.6278   31.7673 C   0  0  0  0  0  0  0  0  0  0  0  0
  -13.0871  -22.4104   31.3183 N   0  0  0  0  0  0  0  0  0  0  0  0
  -12.5518  -22.6583   30.1451 C   0  0  0  0  0  0  0  0  0  0  0  0
  -11.8595  -21.8345   29.3105 N   0  0  0  0  0  0  0  0  0  0  0  0
  -11.5770  -22.3303   28.1405 C   0  0  0  0  0  0  0  0  0  0  0  0
  -11.9259  -23.6707   27.6253 C   0  0  0  0  0  0  0  0  0  0  0  0
  -11.6353  -24.1336   26.0204 Cl  0  0  0  0  0  0  0  0  0  0  0  0
  -12.5586  -24.4425   28.4967 C   0  0  0  0  0  0  0  0  0  0  0  0
  -12.8502  -23.9515   29.7525 N   0  0  0  0  0  0  0  0  0  0  0  0
  -14.0490  -26.5838   29.4978 H   0  0  0  0  0  0  0  0  0  0  0  0
  -12.9240  -28.9318   30.7844 H   0  0  0  0  0  0  0  0  0  0  0  0
  -13.6089  -28.8288   29.1116 H   0  0  0  0  0  0  0  0  0  0  0  0
  -11.6833  -27.9107   27.0988 H   0  0  0  0  0  0  0  0  0  0  0  0
  -11.0438  -28.2413   31.9186 H   0  0  0  0  0  0  0  0  0  0  0  0
   -9.5258  -28.8939   31.2559 H   0  0  0  0  0  0  0  0  0  0  0  0
   -8.2873  -27.3245   32.2211 H   0  0  0  0  0  0  0  0  0  0  0  0
   -9.6513  -26.9128   33.2051 H   0  0  0  0  0  0  0  0  0  0  0  0
  -10.0567  -24.9161   32.0796 H   0  0  0  0  0  0  0  0  0  0  0  0
   -8.3657  -25.0479   31.9668 H   0  0  0  0  0  0  0  0  0  0  0  0
   -8.3765  -25.3414   29.6974 H   0  0  0  0  0  0  0  0  0  0  0  0
   -9.9141  -24.5449   29.8329 H   0  0  0  0  0  0  0  0  0  0  0  0
  -13.9035  -23.7272   32.7845 H   0  0  0  0  0  0  0  0  0  0  0  0
  -11.0534  -21.6927   27.4297 H   0  0  0  0  0  0  0  0  0  0  0  0
  -12.8576  -25.4411   28.2292 H   0  0  0  0  0  0  0  0  0  0  0  0
  1  2  2  0
  2  3  1  0
  3  4  1  0
  4  5  1  0
  5  6  2  0
  6  7  1  0
  7  8  2  0
  8  9  1  0
  9 10  1  0
 10 11  1  0
 11 12  1  0
 12 13  1  0
  2 14  1  0
 14 15  2  0
 15 16  1  0
 16 17  2  0
 17 18  1  0
 18 19  2  0
 19 20  1  0
 20 21  1  0
 20 22  2  0
 22 23  1  0
  9  5  1  0
 23 14  1  0
 13  8  1  0
 23 17  1  0
  3 24  1  0
  4 25  1  0
  4 26  1  0
  6 27  1  0
 10 28  1  0
 10 29  1  0
 11 30  1  0
 11 31  1  0
 12 32  1  0
 12 33  1  0
 13 34  1  0
 13 35  1  0
 15 36  1  0
 19 37  1  0
 22 38  1  0
M  END
>  <Energy>  (1133) 
40.287352746066631

>  <compound_id>  (1133) 
62280

>  <target_id>  (1133) 
1

>  <reference_id>  (1133) 
35

>  <inspiration_ids>  (1133) 
[107, 35]

>  <energy_score>  (1133) 
39.975578142295205

>  <distance_score>  (1133) 
2.3680729676163024

>  <path>  (1133) 
/opt/xchem-fragalysis-2/maxwin/BulkDock/SCRATCH/511021/C62280-P35/C62280-P35.minimised.mol

>  <scratch_subdir>  (1133) 
/opt/xchem-fragalysis-2/maxwin/BulkDock/SCRATCH/511021/C62280-P35

>  <fragmenstein_runtime>  (1133) 
5.144226789474487

>  <fragmenstein_outcome>  (1133) 
too moved

>  <fragmenstein_mode>  (1133) 
expansion

>  <fragmenstein_error>  (1133) 


$$$$
C62276-P107
     RDKit          3D

 35 38  0  0  0  0  0  0  0  0999 V2000
  -14.3542  -21.2096   34.1009 O   0  0  0  0  0  0  0  0  0  0  0  0
  -13.2513  -20.9369   33.8221 C   0  0  0  0  0  0  0  0  0  0  0  0
  -12.3448  -19.7727   34.3173 N   0  0  0  0  0  0  0  0  0  0  0  0
  -12.5683  -18.8142   35.2776 C   0  0  0  0  0  0  0  0  0  0  0  0
  -13.6952  -18.5726   36.0408 C   0  0  0  0  0  0  0  0  0  0  0  0
  -13.3544  -17.9606   37.2251 N   0  0  0  0  0  0  0  0  0  0  0  0
  -12.0540  -17.7783   37.1336 C   0  0  0  0  0  0  0  0  0  0  0  0
  -11.6476  -17.9574   35.8349 N   0  0  0  0  0  0  0  0  0  0  0  0
  -10.4640  -17.3225   35.3091 C   0  0  0  0  0  0  0  0  0  0  0  0
   -9.3562  -17.0154   36.3576 C   0  0  0  0  0  0  0  0  0  0  0  0
   -9.7372  -17.0288   37.8588 C   0  0  0  0  0  0  0  0  0  0  0  0
  -11.0824  -17.6474   38.2433 C   0  0  0  0  0  0  0  0  0  0  0  0
  -12.5288  -21.8272   32.8804 C   0  0  0  0  0  0  0  0  0  0  0  0
  -12.5557  -23.2124   32.8475 C   0  0  0  0  0  0  0  0  0  0  0  0
  -12.0842  -23.5610   31.6076 N   0  0  0  0  0  0  0  0  0  0  0  0
  -11.9161  -24.8000   31.0095 C   0  0  0  0  0  0  0  0  0  0  0  0
  -11.6046  -24.8533   29.7093 C   0  0  0  0  0  0  0  0  0  0  0  0
  -11.3788  -26.2898   28.8228 Cl  0  0  0  0  0  0  0  0  0  0  0  0
  -11.4980  -23.5364   29.0170 C   0  0  0  0  0  0  0  0  0  0  0  0
  -11.5802  -22.3671   29.5827 N   0  0  0  0  0  0  0  0  0  0  0  0
  -11.8259  -22.3761   30.9280 C   0  0  0  0  0  0  0  0  0  0  0  0
  -11.8650  -21.3638   31.7676 N   0  0  0  0  0  0  0  0  0  0  0  0
  -11.4680  -19.7851   33.8071 H   0  0  0  0  0  0  0  0  0  0  0  0
  -14.6987  -18.9438   35.8783 H   0  0  0  0  0  0  0  0  0  0  0  0
  -10.8002  -16.4251   34.7941 H   0  0  0  0  0  0  0  0  0  0  0  0
  -10.0738  -17.8851   34.4648 H   0  0  0  0  0  0  0  0  0  0  0  0
   -8.5065  -17.6926   36.2288 H   0  0  0  0  0  0  0  0  0  0  0  0
   -8.8742  -16.0696   36.0990 H   0  0  0  0  0  0  0  0  0  0  0  0
   -9.6573  -16.0380   38.3002 H   0  0  0  0  0  0  0  0  0  0  0  0
   -8.9353  -17.5201   38.4268 H   0  0  0  0  0  0  0  0  0  0  0  0
  -11.5332  -17.1442   39.1021 H   0  0  0  0  0  0  0  0  0  0  0  0
  -10.9053  -18.6520   38.6246 H   0  0  0  0  0  0  0  0  0  0  0  0
  -12.9833  -23.9373   33.5276 H   0  0  0  0  0  0  0  0  0  0  0  0
  -12.0730  -25.6717   31.6280 H   0  0  0  0  0  0  0  0  0  0  0  0
  -11.3136  -23.5798   27.9302 H   0  0  0  0  0  0  0  0  0  0  0  0
  1  2  2  0
  2  3  1  0
  3  4  1  0
  4  5  2  0
  5  6  1  0
  6  7  2  0
  7  8  1  0
  8  9  1  0
  9 10  1  0
 10 11  1  0
 11 12  1  0
  2 13  1  0
 13 14  2  0
 14 15  1  0
 15 16  1  0
 16 17  2  0
 17 18  1  0
 17 19  1  0
 19 20  2  0
 20 21  1  0
 21 22  2  0
  8  4  1  0
 22 13  1  0
 12  7  1  0
 21 15  1  0
  3 23  1  0
  5 24  1  0
  9 25  1  0
  9 26  1  0
 10 27  1  0
 10 28  1  0
 11 29  1  0
 11 30  1  0
 12 31  1  0
 12 32  1  0
 14 33  1  0
 16 34  1  0
 19 35  1  0
M  END
>  <Energy>  (1134) 
108.78152526571037

>  <compound_id>  (1134) 
62276

>  <target_id>  (1134) 
1

>  <reference_id>  (1134) 
107

>  <inspiration_ids>  (1134) 
[107, 35]

>  <energy_score>  (1134) 
20.23496737353713

>  <distance_score>  (1134) 
1.6254198339808412

>  <path>  (1134) 
/opt/xchem-fragalysis-2/maxwin/BulkDock/SCRATCH/511021/C62276-P107/C62276-P107.minimised.mol

>  <scratch_subdir>  (1134) 
/opt/xchem-fragalysis-2/maxwin/BulkDock/SCRATCH/511021/C62276-P107

>  <fragmenstein_runtime>  (1134) 
4.222898960113525

>  <fragmenstein_outcome>  (1134) 
too moved

>  <fragmenstein_mode>  (1134) 
expansion

>  <fragmenstein_error>  (1134) 


$$$$
C62276-P35
     RDKit          3D

 35 38  0  0  0  0  0  0  0  0999 V2000
  -10.5148  -20.4389   32.3734 O   0  0  0  0  0  0  0  0  0  0  0  0
  -10.9123  -21.4142   32.8465 C   0  0  0  0  0  0  0  0  0  0  0  0
  -10.9110  -21.8783   34.2884 N   0  0  0  0  0  0  0  0  0  0  0  0
  -10.3657  -21.3166   35.3935 C   0  0  0  0  0  0  0  0  0  0  0  0
  -10.1094  -21.9457   36.5723 C   0  0  0  0  0  0  0  0  0  0  0  0
   -9.5323  -21.1071   37.4794 N   0  0  0  0  0  0  0  0  0  0  0  0
   -9.4566  -19.9414   36.8751 C   0  0  0  0  0  0  0  0  0  0  0  0
   -9.9377  -20.0310   35.5884 N   0  0  0  0  0  0  0  0  0  0  0  0
  -10.0180  -18.8956   34.6969 C   0  0  0  0  0  0  0  0  0  0  0  0
   -9.8799  -17.5503   35.4036 C   0  0  0  0  0  0  0  0  0  0  0  0
   -8.7391  -17.5900   36.4116 C   0  0  0  0  0  0  0  0  0  0  0  0
   -9.0196  -18.6489   37.4739 C   0  0  0  0  0  0  0  0  0  0  0  0
  -11.4589  -22.4307   31.9522 C   0  0  0  0  0  0  0  0  0  0  0  0
  -11.3202  -23.8023   32.0326 C   0  0  0  0  0  0  0  0  0  0  0  0
  -11.6251  -24.2529   30.7757 N   0  0  0  0  0  0  0  0  0  0  0  0
  -11.4387  -25.5078   30.2208 C   0  0  0  0  0  0  0  0  0  0  0  0
  -11.6796  -25.6686   28.9151 C   0  0  0  0  0  0  0  0  0  0  0  0
  -11.4643  -27.1298   28.0649 Cl  0  0  0  0  0  0  0  0  0  0  0  0
  -12.1709  -24.4614   28.1896 C   0  0  0  0  0  0  0  0  0  0  0  0
  -12.3722  -23.2887   28.7076 N   0  0  0  0  0  0  0  0  0  0  0  0
  -12.0653  -23.1646   30.0273 C   0  0  0  0  0  0  0  0  0  0  0  0
  -12.0176  -22.0714   30.7439 N   0  0  0  0  0  0  0  0  0  0  0  0
  -11.2664  -22.8231   34.3383 H   0  0  0  0  0  0  0  0  0  0  0  0
  -10.3543  -22.9696   36.7892 H   0  0  0  0  0  0  0  0  0  0  0  0
   -9.2096  -19.0227   33.9730 H   0  0  0  0  0  0  0  0  0  0  0  0
  -10.9950  -18.9387   34.2143 H   0  0  0  0  0  0  0  0  0  0  0  0
   -9.7109  -16.7600   34.6652 H   0  0  0  0  0  0  0  0  0  0  0  0
  -10.8172  -17.3160   35.9231 H   0  0  0  0  0  0  0  0  0  0  0  0
   -8.6151  -16.6105   36.8857 H   0  0  0  0  0  0  0  0  0  0  0  0
   -7.8040  -17.8206   35.8872 H   0  0  0  0  0  0  0  0  0  0  0  0
   -9.8134  -18.2944   38.1428 H   0  0  0  0  0  0  0  0  0  0  0  0
   -8.1342  -18.8035   38.0875 H   0  0  0  0  0  0  0  0  0  0  0  0
  -10.8914  -24.4555   32.7786 H   0  0  0  0  0  0  0  0  0  0  0  0
  -11.0732  -26.2933   30.8684 H   0  0  0  0  0  0  0  0  0  0  0  0
  -12.3893  -24.6037   27.1176 H   0  0  0  0  0  0  0  0  0  0  0  0
  1  2  2  0
  2  3  1  0
  3  4  1  0
  4  5  2  0
  5  6  1  0
  6  7  2  0
  7  8  1  0
  8  9  1  0
  9 10  1  0
 10 11  1  0
 11 12  1  0
  2 13  1  0
 13 14  2  0
 14 15  1  0
 15 16  1  0
 16 17  2  0
 17 18  1  0
 17 19  1  0
 19 20  2  0
 20 21  1  0
 21 22  2  0
  8  4  1  0
 22 13  1  0
 12  7  1  0
 21 15  1  0
  3 23  1  0
  5 24  1  0
  9 25  1  0
  9 26  1  0
 10 27  1  0
 10 28  1  0
 11 29  1  0
 11 30  1  0
 12 31  1  0
 12 32  1  0
 14 33  1  0
 16 34  1  0
 19 35  1  0
M  END
>  <Energy>  (1135) 
87.099488759118955

>  <compound_id>  (1135) 
62276

>  <target_id>  (1135) 
1

>  <reference_id>  (1135) 
35

>  <inspiration_ids>  (1135) 
[107, 35]

>  <energy_score>  (1135) 
-1.447069133054356

>  <distance_score>  (1135) 
1.4612896515894258

>  <path>  (1135) 
/opt/xchem-fragalysis-2/maxwin/BulkDock/SCRATCH/511021/C62276-P35/C62276-P35.minimised.mol

>  <scratch_subdir>  (1135) 
/opt/xchem-fragalysis-2/maxwin/BulkDock/SCRATCH/511021/C62276-P35

>  <fragmenstein_runtime>  (1135) 
6.4772679805755615

>  <fragmenstein_outcome>  (1135) 
too moved

>  <fragmenstein_mode>  (1135) 
expansion

>  <fragmenstein_error>  (1135) 


$$$$
C62295-P107
     RDKit          3D

 35 38  0  0  0  0  0  0  0  0999 V2000
  -12.6100  -27.5169   28.0011 O   0  0  0  0  0  0  0  0  0  0  0  0
  -11.8839  -26.5705   28.0298 C   0  0  0  0  0  0  0  0  0  0  0  0
  -10.8779  -26.2007   28.9631 N   0  0  0  0  0  0  0  0  0  0  0  0
  -10.5133  -26.7582   30.1299 C   0  0  0  0  0  0  0  0  0  0  0  0
  -11.1410  -27.8218   30.7202 C   0  0  0  0  0  0  0  0  0  0  0  0
  -11.4381  -27.4674   31.9858 N   0  0  0  0  0  0  0  0  0  0  0  0
  -11.1413  -26.1946   32.0467 C   0  0  0  0  0  0  0  0  0  0  0  0
  -10.0808  -26.0896   31.2189 N   0  0  0  0  0  0  0  0  0  0  0  0
   -9.0428  -25.1641   31.4957 C   0  0  0  0  0  0  0  0  0  0  0  0
   -9.4174  -24.2809   32.6834 C   0  0  0  0  0  0  0  0  0  0  0  0
  -10.8561  -23.8082   32.5521 C   0  0  0  0  0  0  0  0  0  0  0  0
  -11.6889  -25.0424   32.8229 C   0  0  0  0  0  0  0  0  0  0  0  0
  -12.0632  -25.5401   27.0349 C   0  0  0  0  0  0  0  0  0  0  0  0
  -11.2491  -24.4989   26.6466 C   0  0  0  0  0  0  0  0  0  0  0  0
  -11.8528  -23.7056   25.7284 N   0  0  0  0  0  0  0  0  0  0  0  0
  -13.0428  -24.2200   25.5266 C   0  0  0  0  0  0  0  0  0  0  0  0
  -14.0184  -23.7882   24.6747 N   0  0  0  0  0  0  0  0  0  0  0  0
  -15.1210  -24.4710   24.6645 C   0  0  0  0  0  0  0  0  0  0  0  0
  -15.4105  -25.6666   25.4945 C   0  0  0  0  0  0  0  0  0  0  0  0
  -16.9196  -26.4440   25.3620 Cl  0  0  0  0  0  0  0  0  0  0  0  0
  -14.4248  -26.0598   26.3036 C   0  0  0  0  0  0  0  0  0  0  0  0
  -13.2251  -25.3546   26.3125 N   0  0  0  0  0  0  0  0  0  0  0  0
  -10.5204  -25.2934   28.7169 H   0  0  0  0  0  0  0  0  0  0  0  0
  -11.7011  -28.6289   30.2866 H   0  0  0  0  0  0  0  0  0  0  0  0
   -8.9205  -24.6735   30.5482 H   0  0  0  0  0  0  0  0  0  0  0  0
   -8.1490  -25.7270   31.7482 H   0  0  0  0  0  0  0  0  0  0  0  0
   -9.3260  -24.8960   33.5907 H   0  0  0  0  0  0  0  0  0  0  0  0
   -8.7429  -23.4531   32.8499 H   0  0  0  0  0  0  0  0  0  0  0  0
  -11.0508  -23.4041   31.5515 H   0  0  0  0  0  0  0  0  0  0  0  0
  -11.1175  -23.0261   33.2661 H   0  0  0  0  0  0  0  0  0  0  0  0
  -11.6456  -25.2389   33.8978 H   0  0  0  0  0  0  0  0  0  0  0  0
  -12.7254  -24.8404   32.5508 H   0  0  0  0  0  0  0  0  0  0  0  0
  -10.2460  -24.2670   26.9760 H   0  0  0  0  0  0  0  0  0  0  0  0
  -15.9306  -24.1487   23.9884 H   0  0  0  0  0  0  0  0  0  0  0  0
  -14.5231  -26.9279   26.9384 H   0  0  0  0  0  0  0  0  0  0  0  0
  1  2  2  0
  2  3  1  0
  3  4  1  0
  4  5  2  0
  5  6  1  0
  6  7  2  0
  7  8  1  0
  8  9  1  0
  9 10  1  0
 10 11  1  0
 11 12  1  0
  2 13  1  0
 13 14  2  0
 14 15  1  0
 15 16  2  0
 16 17  1  0
 17 18  2  0
 18 19  1  0
 19 20  1  0
 19 21  2  0
 21 22  1  0
  8  4  1  0
 22 13  1  0
 12  7  1  0
 22 16  1  0
  3 23  1  0
  5 24  1  0
  9 25  1  0
  9 26  1  0
 10 27  1  0
 10 28  1  0
 11 29  1  0
 11 30  1  0
 12 31  1  0
 12 32  1  0
 14 33  1  0
 18 34  1  0
 21 35  1  0
M  END
>  <Energy>  (1136) 
70.043711433169534

>  <compound_id>  (1136) 
62295

>  <target_id>  (1136) 
1

>  <reference_id>  (1136) 
107

>  <inspiration_ids>  (1136) 
[107, 35]

>  <energy_score>  (1136) 
4.610273397657949

>  <distance_score>  (1136) 
4.715931727972482

>  <path>  (1136) 
/opt/xchem-fragalysis-2/maxwin/BulkDock/SCRATCH/511021/C62295-P107/C62295-P107.minimised.mol

>  <scratch_subdir>  (1136) 
/opt/xchem-fragalysis-2/maxwin/BulkDock/SCRATCH/511021/C62295-P107

>  <fragmenstein_runtime>  (1136) 
7.440867185592651

>  <fragmenstein_outcome>  (1136) 
too moved

>  <fragmenstein_mode>  (1136) 
expansion

>  <fragmenstein_error>  (1136) 


$$$$
C62295-P35
     RDKit          3D

 35 38  0  0  0  0  0  0  0  0999 V2000
  -15.2928  -26.2011   31.2716 O   0  0  0  0  0  0  0  0  0  0  0  0
  -14.2661  -25.7145   30.9016 C   0  0  0  0  0  0  0  0  0  0  0  0
  -13.0290  -26.3235   30.5023 N   0  0  0  0  0  0  0  0  0  0  0  0
  -12.6286  -27.6202   30.5146 C   0  0  0  0  0  0  0  0  0  0  0  0
  -13.0389  -28.6010   31.3789 C   0  0  0  0  0  0  0  0  0  0  0  0
  -12.1888  -28.5088   32.4799 N   0  0  0  0  0  0  0  0  0  0  0  0
  -11.1854  -27.7597   32.0257 C   0  0  0  0  0  0  0  0  0  0  0  0
  -11.2640  -27.7682   30.6429 N   0  0  0  0  0  0  0  0  0  0  0  0
  -10.2522  -27.1723   29.7899 C   0  0  0  0  0  0  0  0  0  0  0  0
   -9.5779  -25.9854   30.4689 C   0  0  0  0  0  0  0  0  0  0  0  0
   -9.1349  -26.3742   31.8805 C   0  0  0  0  0  0  0  0  0  0  0  0
  -10.3328  -26.7439   32.7295 C   0  0  0  0  0  0  0  0  0  0  0  0
  -14.0043  -24.2889   30.8684 C   0  0  0  0  0  0  0  0  0  0  0  0
  -14.1059  -23.3332   31.8585 C   0  0  0  0  0  0  0  0  0  0  0  0
  -13.2784  -22.2611   31.5828 N   0  0  0  0  0  0  0  0  0  0  0  0
  -12.7184  -22.5216   30.4223 C   0  0  0  0  0  0  0  0  0  0  0  0
  -11.7701  -21.8276   29.7263 N   0  0  0  0  0  0  0  0  0  0  0  0
  -11.4495  -22.3084   28.5589 C   0  0  0  0  0  0  0  0  0  0  0  0
  -12.0157  -23.5167   27.9098 C   0  0  0  0  0  0  0  0  0  0  0  0
  -11.5188  -24.0613   26.3841 Cl  0  0  0  0  0  0  0  0  0  0  0  0
  -12.9394  -24.1500   28.6246 C   0  0  0  0  0  0  0  0  0  0  0  0
  -13.2731  -23.6704   29.8843 N   0  0  0  0  0  0  0  0  0  0  0  0
  -12.3498  -25.6053   30.3320 H   0  0  0  0  0  0  0  0  0  0  0  0
  -14.0130  -29.0565   31.4209 H   0  0  0  0  0  0  0  0  0  0  0  0
   -9.5397  -27.9724   29.5737 H   0  0  0  0  0  0  0  0  0  0  0  0
  -10.7196  -26.8718   28.8463 H   0  0  0  0  0  0  0  0  0  0  0  0
   -8.7337  -25.6475   29.8690 H   0  0  0  0  0  0  0  0  0  0  0  0
  -10.2655  -25.1338   30.5285 H   0  0  0  0  0  0  0  0  0  0  0  0
   -8.5946  -25.5447   32.3401 H   0  0  0  0  0  0  0  0  0  0  0  0
   -8.4747  -27.2441   31.8408 H   0  0  0  0  0  0  0  0  0  0  0  0
  -10.9114  -25.8266   32.8673 H   0  0  0  0  0  0  0  0  0  0  0  0
  -10.0288  -27.0639   33.7253 H   0  0  0  0  0  0  0  0  0  0  0  0
  -14.6214  -23.4092   32.8092 H   0  0  0  0  0  0  0  0  0  0  0  0
  -10.6773  -21.7872   27.9877 H   0  0  0  0  0  0  0  0  0  0  0  0
  -13.4423  -25.0417   28.2663 H   0  0  0  0  0  0  0  0  0  0  0  0
  1  2  2  0
  2  3  1  0
  3  4  1  0
  4  5  2  0
  5  6  1  0
  6  7  2  0
  7  8  1  0
  8  9  1  0
  9 10  1  0
 10 11  1  0
 11 12  1  0
  2 13  1  0
 13 14  2  0
 14 15  1  0
 15 16  2  0
 16 17  1  0
 17 18  2  0
 18 19  1  0
 19 20  1  0
 19 21  2  0
 21 22  1  0
  8  4  1  0
 22 13  1  0
 12  7  1  0
 22 16  1  0
  3 23  1  0
  5 24  1  0
  9 25  1  0
  9 26  1  0
 10 27  1  0
 10 28  1  0
 11 29  1  0
 11 30  1  0
 12 31  1  0
 12 32  1  0
 14 33  1  0
 18 34  1  0
 21 35  1  0
M  END
>  <Energy>  (1137) 
97.168487028198086

>  <compound_id>  (1137) 
62295

>  <target_id>  (1137) 
1

>  <reference_id>  (1137) 
35

>  <inspiration_ids>  (1137) 
[107, 35]

>  <energy_score>  (1137) 
31.735048992686245

>  <distance_score>  (1137) 
2.6503472171930693

>  <path>  (1137) 
/opt/xchem-fragalysis-2/maxwin/BulkDock/SCRATCH/511021/C62295-P35/C62295-P35.minimised.mol

>  <scratch_subdir>  (1137) 
/opt/xchem-fragalysis-2/maxwin/BulkDock/SCRATCH/511021/C62295-P35

>  <fragmenstein_runtime>  (1137) 
5.070144414901733

>  <fragmenstein_outcome>  (1137) 
too moved

>  <fragmenstein_mode>  (1137) 
expansion

>  <fragmenstein_error>  (1137) 


$$$$
C62294-P107
     RDKit          3D

 41 44  0  0  0  0  0  0  0  0999 V2000
  -15.2322  -23.0602   33.9678 O   0  0  0  0  0  0  0  0  0  0  0  0
  -14.1196  -22.6634   33.8213 C   0  0  0  0  0  0  0  0  0  0  0  0
  -12.8710  -23.3639   33.7780 N   0  0  0  0  0  0  0  0  0  0  0  0
  -12.5915  -24.7041   33.7935 C   0  0  0  0  0  0  0  0  0  0  0  0
  -12.7302  -24.9554   32.2992 C   0  0  0  0  0  0  0  0  0  0  0  0
  -11.9204  -24.6061   31.1746 N   0  0  0  0  0  0  0  0  0  0  0  0
  -12.4754  -24.6626   29.9080 C   0  0  0  0  0  0  0  0  0  0  0  0
  -11.6142  -24.9688   28.9772 N   0  0  0  0  0  0  0  0  0  0  0  0
  -10.5338  -25.3632   29.6834 C   0  0  0  0  0  0  0  0  0  0  0  0
  -10.6903  -25.1212   31.0449 C   0  0  0  0  0  0  0  0  0  0  0  0
  -10.2103  -26.0296   32.1021 C   0  0  0  0  0  0  0  0  0  0  0  0
  -10.5299  -27.4092   31.4455 C   0  0  0  0  0  0  0  0  0  0  0  0
   -9.4520  -27.3901   30.4203 C   0  0  0  0  0  0  0  0  0  0  0  0
   -9.8000  -26.5416   29.1895 C   0  0  0  0  0  0  0  0  0  0  0  0
  -13.7127  -21.3449   33.5354 C   0  0  0  0  0  0  0  0  0  0  0  0
  -13.1778  -20.3220   34.2738 C   0  0  0  0  0  0  0  0  0  0  0  0
  -11.9110  -20.0825   33.8125 N   0  0  0  0  0  0  0  0  0  0  0  0
  -11.7526  -20.8109   32.7276 C   0  0  0  0  0  0  0  0  0  0  0  0
  -10.6879  -20.9383   31.9143 N   0  0  0  0  0  0  0  0  0  0  0  0
  -10.9701  -21.3381   30.7250 C   0  0  0  0  0  0  0  0  0  0  0  0
  -12.2095  -21.8511   30.1807 C   0  0  0  0  0  0  0  0  0  0  0  0
  -12.0881  -22.1621   28.5055 Cl  0  0  0  0  0  0  0  0  0  0  0  0
  -13.1931  -21.9524   31.0898 C   0  0  0  0  0  0  0  0  0  0  0  0
  -12.9728  -21.3591   32.3557 N   0  0  0  0  0  0  0  0  0  0  0  0
  -12.1187  -22.6967   33.7243 H   0  0  0  0  0  0  0  0  0  0  0  0
  -11.6001  -24.8460   34.2127 H   0  0  0  0  0  0  0  0  0  0  0  0
  -13.3846  -25.2199   34.3248 H   0  0  0  0  0  0  0  0  0  0  0  0
  -12.7124  -26.0148   32.1625 H   0  0  0  0  0  0  0  0  0  0  0  0
  -13.6472  -24.4598   32.0355 H   0  0  0  0  0  0  0  0  0  0  0  0
  -13.5178  -24.4440   29.7276 H   0  0  0  0  0  0  0  0  0  0  0  0
   -9.1647  -25.7610   32.3062 H   0  0  0  0  0  0  0  0  0  0  0  0
  -10.6713  -25.9970   33.0729 H   0  0  0  0  0  0  0  0  0  0  0  0
  -11.5157  -27.4828   30.9757 H   0  0  0  0  0  0  0  0  0  0  0  0
  -10.4746  -28.2816   32.0890 H   0  0  0  0  0  0  0  0  0  0  0  0
   -9.0082  -28.3114   30.1901 H   0  0  0  0  0  0  0  0  0  0  0  0
   -8.6386  -26.9859   31.0136 H   0  0  0  0  0  0  0  0  0  0  0  0
  -10.4685  -27.1160   28.5380 H   0  0  0  0  0  0  0  0  0  0  0  0
   -8.9567  -26.2333   28.5722 H   0  0  0  0  0  0  0  0  0  0  0  0
  -13.4926  -19.8700   35.2001 H   0  0  0  0  0  0  0  0  0  0  0  0
  -10.2343  -21.2165   29.9475 H   0  0  0  0  0  0  0  0  0  0  0  0
  -14.1840  -22.3460   30.8991 H   0  0  0  0  0  0  0  0  0  0  0  0
  1  2  2  0
  2  3  1  0
  3  4  1  0
  4  5  1  0
  5  6  1  0
  6  7  1  0
  7  8  2  0
  8  9  1  0
  9 10  2  0
 10 11  1  0
 11 12  1  0
 12 13  1  0
 13 14  1  0
  2 15  1  0
 15 16  2  0
 16 17  1  0
 17 18  2  0
 18 19  1  0
 19 20  2  0
 20 21  1  0
 21 22  1  0
 21 23  2  0
 23 24  1  0
 10  6  1  0
 24 15  1  0
 14  9  1  0
 24 18  1  0
  3 25  1  0
  4 26  1  0
  4 27  1  0
  5 28  1  0
  5 29  1  0
  7 30  1  0
 11 31  1  0
 11 32  1  0
 12 33  1  0
 12 34  1  0
 13 35  1  0
 13 36  1  0
 14 37  1  0
 14 38  1  0
 16 39  1  0
 20 40  1  0
 23 41  1  0
M  END
>  <Energy>  (1138) 
170.67980033688283

>  <compound_id>  (1138) 
62294

>  <target_id>  (1138) 
1

>  <reference_id>  (1138) 
107

>  <inspiration_ids>  (1138) 
[107, 35]

>  <energy_score>  (1138) 
136.87434316455716

>  <distance_score>  (1138) 
3.385132366159187

>  <path>  (1138) 
/opt/xchem-fragalysis-2/maxwin/BulkDock/SCRATCH/511021/C62294-P107/C62294-P107.minimised.mol

>  <scratch_subdir>  (1138) 
/opt/xchem-fragalysis-2/maxwin/BulkDock/SCRATCH/511021/C62294-P107

>  <fragmenstein_runtime>  (1138) 
9.843681573867798

>  <fragmenstein_outcome>  (1138) 
too moved

>  <fragmenstein_mode>  (1138) 
expansion

>  <fragmenstein_error>  (1138) 


$$$$
C62294-P35
     RDKit          3D

 41 44  0  0  0  0  0  0  0  0999 V2000
  -15.7461  -24.8632   31.9966 O   0  0  0  0  0  0  0  0  0  0  0  0
  -14.6609  -24.9481   31.5890 C   0  0  0  0  0  0  0  0  0  0  0  0
  -13.8539  -26.1788   31.1620 N   0  0  0  0  0  0  0  0  0  0  0  0
  -14.2385  -27.5498   31.0563 C   0  0  0  0  0  0  0  0  0  0  0  0
  -13.1162  -28.5094   31.5078 C   0  0  0  0  0  0  0  0  0  0  0  0
  -11.8069  -28.1459   31.0135 N   0  0  0  0  0  0  0  0  0  0  0  0
  -10.8709  -27.3564   31.6259 C   0  0  0  0  0  0  0  0  0  0  0  0
  -10.0059  -26.8891   30.7571 N   0  0  0  0  0  0  0  0  0  0  0  0
  -10.3740  -27.4434   29.5721 C   0  0  0  0  0  0  0  0  0  0  0  0
  -11.4747  -28.2461   29.7034 C   0  0  0  0  0  0  0  0  0  0  0  0
  -12.3168  -28.7968   28.6116 C   0  0  0  0  0  0  0  0  0  0  0  0
  -11.9047  -28.2268   27.2623 C   0  0  0  0  0  0  0  0  0  0  0  0
  -11.1377  -26.9214   27.3334 C   0  0  0  0  0  0  0  0  0  0  0  0
   -9.9173  -26.9788   28.2586 C   0  0  0  0  0  0  0  0  0  0  0  0
  -13.7814  -23.8027   31.4984 C   0  0  0  0  0  0  0  0  0  0  0  0
  -13.6044  -22.7813   32.4110 C   0  0  0  0  0  0  0  0  0  0  0  0
  -12.6527  -21.8933   31.9963 N   0  0  0  0  0  0  0  0  0  0  0  0
  -12.2842  -22.2992   30.8046 C   0  0  0  0  0  0  0  0  0  0  0  0
  -11.4646  -21.6674   29.9209 N   0  0  0  0  0  0  0  0  0  0  0  0
  -11.3435  -22.2255   28.7576 C   0  0  0  0  0  0  0  0  0  0  0  0
  -12.0158  -23.4505   28.2905 C   0  0  0  0  0  0  0  0  0  0  0  0
  -11.8988  -23.8525   26.6382 Cl  0  0  0  0  0  0  0  0  0  0  0  0
  -12.7996  -24.0465   29.1928 C   0  0  0  0  0  0  0  0  0  0  0  0
  -12.9424  -23.4740   30.4560 N   0  0  0  0  0  0  0  0  0  0  0  0
  -12.9055  -25.8989   30.9332 H   0  0  0  0  0  0  0  0  0  0  0  0
  -15.1517  -27.6823   31.6361 H   0  0  0  0  0  0  0  0  0  0  0  0
  -14.5387  -27.7045   30.0210 H   0  0  0  0  0  0  0  0  0  0  0  0
  -13.0083  -28.5414   32.5862 H   0  0  0  0  0  0  0  0  0  0  0  0
  -13.3306  -29.5308   31.1744 H   0  0  0  0  0  0  0  0  0  0  0  0
  -10.8884  -27.0963   32.6762 H   0  0  0  0  0  0  0  0  0  0  0  0
  -12.3160  -29.8855   28.5936 H   0  0  0  0  0  0  0  0  0  0  0  0
  -13.3622  -28.5284   28.7443 H   0  0  0  0  0  0  0  0  0  0  0  0
  -11.2901  -28.9413   26.7239 H   0  0  0  0  0  0  0  0  0  0  0  0
  -12.8145  -28.0525   26.6800 H   0  0  0  0  0  0  0  0  0  0  0  0
  -11.8416  -26.1937   27.7308 H   0  0  0  0  0  0  0  0  0  0  0  0
  -10.8724  -26.6185   26.3235 H   0  0  0  0  0  0  0  0  0  0  0  0
   -9.5153  -25.9761   28.3889 H   0  0  0  0  0  0  0  0  0  0  0  0
   -9.1485  -27.6398   27.8541 H   0  0  0  0  0  0  0  0  0  0  0  0
  -14.1155  -22.6548   33.3574 H   0  0  0  0  0  0  0  0  0  0  0  0
  -10.6767  -21.7535   28.0306 H   0  0  0  0  0  0  0  0  0  0  0  0
  -13.4125  -24.9027   28.9482 H   0  0  0  0  0  0  0  0  0  0  0  0
  1  2  2  0
  2  3  1  0
  3  4  1  0
  4  5  1  0
  5  6  1  0
  6  7  1  0
  7  8  2  0
  8  9  1  0
  9 10  2  0
 10 11  1  0
 11 12  1  0
 12 13  1  0
 13 14  1  0
  2 15  1  0
 15 16  2  0
 16 17  1  0
 17 18  2  0
 18 19  1  0
 19 20  2  0
 20 21  1  0
 21 22  1  0
 21 23  2  0
 23 24  1  0
 10  6  1  0
 24 15  1  0
 14  9  1  0
 24 18  1  0
  3 25  1  0
  4 26  1  0
  4 27  1  0
  5 28  1  0
  5 29  1  0
  7 30  1  0
 11 31  1  0
 11 32  1  0
 12 33  1  0
 12 34  1  0
 13 35  1  0
 13 36  1  0
 14 37  1  0
 14 38  1  0
 16 39  1  0
 20 40  1  0
 23 41  1  0
M  END
>  <Energy>  (1139) 
28.517689942033535

>  <compound_id>  (1139) 
62294

>  <target_id>  (1139) 
1

>  <reference_id>  (1139) 
35

>  <inspiration_ids>  (1139) 
[107, 35]

>  <energy_score>  (1139) 
-1.1457133368676296

>  <distance_score>  (1139) 
2.2900750371963294

>  <path>  (1139) 
/opt/xchem-fragalysis-2/maxwin/BulkDock/SCRATCH/511021/C62294-P35/C62294-P35.minimised.mol

>  <scratch_subdir>  (1139) 
/opt/xchem-fragalysis-2/maxwin/BulkDock/SCRATCH/511021/C62294-P35

>  <fragmenstein_runtime>  (1139) 
5.314812660217285

>  <fragmenstein_outcome>  (1139) 
too moved

>  <fragmenstein_mode>  (1139) 
expansion

>  <fragmenstein_error>  (1139) 


$$$$
C62290-P107
     RDKit          3D

 38 41  0  0  0  0  0  0  0  0999 V2000
  -14.8320  -23.1899   34.3454 O   0  0  0  0  0  0  0  0  0  0  0  0
  -14.6456  -22.5689   33.3796 C   0  0  0  0  0  0  0  0  0  0  0  0
  -15.4140  -21.3773   32.8017 N   0  0  0  0  0  0  0  0  0  0  0  0
  -16.5176  -20.6348   33.3335 C   0  0  0  0  0  0  0  0  0  0  0  0
  -16.0039  -19.6506   34.3318 C   0  0  0  0  0  0  0  0  0  0  0  0
  -16.5070  -19.3337   35.5794 C   0  0  0  0  0  0  0  0  0  0  0  0
  -15.5820  -18.4974   36.1342 N   0  0  0  0  0  0  0  0  0  0  0  0
  -14.5678  -18.3222   35.2291 C   0  0  0  0  0  0  0  0  0  0  0  0
  -14.8428  -18.9355   34.1012 N   0  0  0  0  0  0  0  0  0  0  0  0
  -13.3347  -17.5582   35.5546 C   0  0  0  0  0  0  0  0  0  0  0  0
  -13.1202  -17.5073   37.0659 C   0  0  0  0  0  0  0  0  0  0  0  0
  -14.4000  -17.0533   37.7714 C   0  0  0  0  0  0  0  0  0  0  0  0
  -15.5498  -18.0288   37.5048 C   0  0  0  0  0  0  0  0  0  0  0  0
  -13.5171  -22.8594   32.4732 C   0  0  0  0  0  0  0  0  0  0  0  0
  -12.6053  -23.8950   32.5657 C   0  0  0  0  0  0  0  0  0  0  0  0
  -12.0668  -23.9928   31.3118 N   0  0  0  0  0  0  0  0  0  0  0  0
  -11.3406  -25.0217   30.7293 C   0  0  0  0  0  0  0  0  0  0  0  0
  -11.0399  -24.9308   29.4286 C   0  0  0  0  0  0  0  0  0  0  0  0
  -10.2227  -26.1218   28.5340 Cl  0  0  0  0  0  0  0  0  0  0  0  0
  -11.4479  -23.6680   28.7478 C   0  0  0  0  0  0  0  0  0  0  0  0
  -12.0868  -22.6782   29.2939 N   0  0  0  0  0  0  0  0  0  0  0  0
  -12.4655  -22.8670   30.5932 C   0  0  0  0  0  0  0  0  0  0  0  0
  -13.2934  -22.1415   31.3082 N   0  0  0  0  0  0  0  0  0  0  0  0
  -14.9279  -21.0259   31.9861 H   0  0  0  0  0  0  0  0  0  0  0  0
  -17.0206  -20.1224   32.5090 H   0  0  0  0  0  0  0  0  0  0  0  0
  -17.2066  -21.3397   33.8081 H   0  0  0  0  0  0  0  0  0  0  0  0
  -17.3757  -19.6859   36.1175 H   0  0  0  0  0  0  0  0  0  0  0  0
  -12.4675  -18.0268   35.0775 H   0  0  0  0  0  0  0  0  0  0  0  0
  -13.4258  -16.5429   35.1513 H   0  0  0  0  0  0  0  0  0  0  0  0
  -12.8330  -18.4964   37.4372 H   0  0  0  0  0  0  0  0  0  0  0  0
  -12.2890  -16.8384   37.2939 H   0  0  0  0  0  0  0  0  0  0  0  0
  -14.6759  -16.0547   37.4093 H   0  0  0  0  0  0  0  0  0  0  0  0
  -14.2314  -16.9678   38.8504 H   0  0  0  0  0  0  0  0  0  0  0  0
  -15.4425  -18.9194   38.1350 H   0  0  0  0  0  0  0  0  0  0  0  0
  -16.5143  -17.5589   37.7233 H   0  0  0  0  0  0  0  0  0  0  0  0
  -12.4729  -24.6503   33.3264 H   0  0  0  0  0  0  0  0  0  0  0  0
  -11.0995  -25.8755   31.3495 H   0  0  0  0  0  0  0  0  0  0  0  0
  -11.1486  -23.5764   27.6900 H   0  0  0  0  0  0  0  0  0  0  0  0
  1  2  2  0
  2  3  1  0
  3  4  1  0
  4  5  1  0
  5  6  2  0
  6  7  1  0
  7  8  1  0
  8  9  2  0
  8 10  1  0
 10 11  1  0
 11 12  1  0
 12 13  1  0
  2 14  1  0
 14 15  2  0
 15 16  1  0
 16 17  1  0
 17 18  2  0
 18 19  1  0
 18 20  1  0
 20 21  2  0
 21 22  1  0
 22 23  2  0
  9  5  1  0
 23 14  1  0
 13  7  1  0
 22 16  1  0
  3 24  1  0
  4 25  1  0
  4 26  1  0
  6 27  1  0
 10 28  1  0
 10 29  1  0
 11 30  1  0
 11 31  1  0
 12 32  1  0
 12 33  1  0
 13 34  1  0
 13 35  1  0
 15 36  1  0
 17 37  1  0
 20 38  1  0
M  END
>  <Energy>  (1140) 
46.396076024840376

>  <compound_id>  (1140) 
62290

>  <target_id>  (1140) 
1

>  <reference_id>  (1140) 
107

>  <inspiration_ids>  (1140) 
[107, 35]

>  <energy_score>  (1140) 
-10.72043161824638

>  <distance_score>  (1140) 
2.618333388404724

>  <path>  (1140) 
/opt/xchem-fragalysis-2/maxwin/BulkDock/SCRATCH/511021/C62290-P107/C62290-P107.minimised.mol

>  <scratch_subdir>  (1140) 
/opt/xchem-fragalysis-2/maxwin/BulkDock/SCRATCH/511021/C62290-P107

>  <fragmenstein_runtime>  (1140) 
4.761646509170532

>  <fragmenstein_outcome>  (1140) 
too moved

>  <fragmenstein_mode>  (1140) 
expansion

>  <fragmenstein_error>  (1140) 


$$$$
C62290-P35
     RDKit          3D

 38 41  0  0  0  0  0  0  0  0999 V2000
  -10.1447  -22.2620   35.2055 O   0  0  0  0  0  0  0  0  0  0  0  0
  -10.4490  -21.6526   34.2624 C   0  0  0  0  0  0  0  0  0  0  0  0
  -10.2410  -20.1748   33.9262 N   0  0  0  0  0  0  0  0  0  0  0  0
   -9.5310  -19.1483   34.6340 C   0  0  0  0  0  0  0  0  0  0  0  0
   -9.9704  -18.8373   36.0127 C   0  0  0  0  0  0  0  0  0  0  0  0
  -11.1920  -18.4267   36.5200 C   0  0  0  0  0  0  0  0  0  0  0  0
  -10.9249  -18.0556   37.8041 N   0  0  0  0  0  0  0  0  0  0  0  0
   -9.5870  -18.2064   38.0273 C   0  0  0  0  0  0  0  0  0  0  0  0
   -8.9970  -18.7219   36.9818 N   0  0  0  0  0  0  0  0  0  0  0  0
   -8.9744  -17.7508   39.2936 C   0  0  0  0  0  0  0  0  0  0  0  0
   -9.6423  -16.4570   39.7591 C   0  0  0  0  0  0  0  0  0  0  0  0
  -11.1780  -16.4612   39.6981 C   0  0  0  0  0  0  0  0  0  0  0  0
  -11.8091  -17.5495   38.8243 C   0  0  0  0  0  0  0  0  0  0  0  0
  -11.0588  -22.2981   33.0803 C   0  0  0  0  0  0  0  0  0  0  0  0
  -11.0461  -23.6492   32.8014 C   0  0  0  0  0  0  0  0  0  0  0  0
  -11.4517  -23.7726   31.5039 N   0  0  0  0  0  0  0  0  0  0  0  0
  -11.4709  -24.8949   30.6891 C   0  0  0  0  0  0  0  0  0  0  0  0
  -11.7568  -24.7410   29.3920 C   0  0  0  0  0  0  0  0  0  0  0  0
  -11.7784  -26.0020   28.2471 Cl  0  0  0  0  0  0  0  0  0  0  0  0
  -12.0529  -23.3452   28.9574 C   0  0  0  0  0  0  0  0  0  0  0  0
  -12.0656  -22.2889   29.7176 N   0  0  0  0  0  0  0  0  0  0  0  0
  -11.7430  -22.4938   31.0308 C   0  0  0  0  0  0  0  0  0  0  0  0
  -11.5254  -21.5975   31.9724 N   0  0  0  0  0  0  0  0  0  0  0  0
  -10.5593  -19.9954   32.9799 H   0  0  0  0  0  0  0  0  0  0  0  0
   -8.4788  -19.4476   34.6375 H   0  0  0  0  0  0  0  0  0  0  0  0
   -9.6031  -18.2286   34.0540 H   0  0  0  0  0  0  0  0  0  0  0  0
  -12.1631  -18.3368   36.0561 H   0  0  0  0  0  0  0  0  0  0  0  0
   -9.0610  -18.5417   40.0410 H   0  0  0  0  0  0  0  0  0  0  0  0
   -7.9091  -17.5626   39.1428 H   0  0  0  0  0  0  0  0  0  0  0  0
   -9.3062  -16.2017   40.7706 H   0  0  0  0  0  0  0  0  0  0  0  0
   -9.2863  -15.6429   39.1162 H   0  0  0  0  0  0  0  0  0  0  0  0
  -11.5049  -15.4765   39.3525 H   0  0  0  0  0  0  0  0  0  0  0  0
  -11.5925  -16.5449   40.7081 H   0  0  0  0  0  0  0  0  0  0  0  0
  -12.7316  -17.1975   38.3554 H   0  0  0  0  0  0  0  0  0  0  0  0
  -12.0675  -18.4052   39.4538 H   0  0  0  0  0  0  0  0  0  0  0  0
  -10.6892  -24.4903   33.3766 H   0  0  0  0  0  0  0  0  0  0  0  0
  -11.2229  -25.8437   31.1460 H   0  0  0  0  0  0  0  0  0  0  0  0
  -12.2837  -23.2194   27.8860 H   0  0  0  0  0  0  0  0  0  0  0  0
  1  2  2  0
  2  3  1  0
  3  4  1  0
  4  5  1  0
  5  6  2  0
  6  7  1  0
  7  8  1  0
  8  9  2  0
  8 10  1  0
 10 11  1  0
 11 12  1  0
 12 13  1  0
  2 14  1  0
 14 15  2  0
 15 16  1  0
 16 17  1  0
 17 18  2  0
 18 19  1  0
 18 20  1  0
 20 21  2  0
 21 22  1  0
 22 23  2  0
  9  5  1  0
 23 14  1  0
 13  7  1  0
 22 16  1  0
  3 24  1  0
  4 25  1  0
  4 26  1  0
  6 27  1  0
 10 28  1  0
 10 29  1  0
 11 30  1  0
 11 31  1  0
 12 32  1  0
 12 33  1  0
 13 34  1  0
 13 35  1  0
 15 36  1  0
 17 37  1  0
 20 38  1  0
M  END
>  <Energy>  (1141) 
54.274648241795418

>  <compound_id>  (1141) 
62290

>  <target_id>  (1141) 
1

>  <reference_id>  (1141) 
35

>  <inspiration_ids>  (1141) 
[107, 35]

>  <energy_score>  (1141) 
-2.8418594012917424

>  <distance_score>  (1141) 
0.9816136336334205

>  <path>  (1141) 
/opt/xchem-fragalysis-2/maxwin/BulkDock/SCRATCH/511021/C62290-P35/C62290-P35.minimised.mol

>  <scratch_subdir>  (1141) 
/opt/xchem-fragalysis-2/maxwin/BulkDock/SCRATCH/511021/C62290-P35

>  <fragmenstein_runtime>  (1141) 
7.488605260848999

>  <fragmenstein_outcome>  (1141) 
acceptable

>  <fragmenstein_mode>  (1141) 
expansion

>  <fragmenstein_error>  (1141) 


$$$$
C62296-P107
     RDKit          3D

 40 43  0  0  0  0  0  0  0  0999 V2000
  -13.2270  -25.1957   25.2837 O   0  0  0  0  0  0  0  0  0  0  0  0
  -13.1045  -24.9275   26.4543 C   0  0  0  0  0  0  0  0  0  0  0  0
  -13.6854  -25.5108   27.5352 O   0  0  0  0  0  0  0  0  0  0  0  0
  -13.5104  -26.9148   27.5215 C   0  0  0  0  0  0  0  0  0  0  0  0
  -12.1421  -27.4052   28.0595 C   0  0  0  0  0  0  0  0  0  0  0  0
  -11.6393  -26.9032   29.3788 C   0  0  0  0  0  0  0  0  0  0  0  0
  -10.4005  -27.0305   29.9676 C   0  0  0  0  0  0  0  0  0  0  0  0
  -10.4375  -26.2774   31.1071 N   0  0  0  0  0  0  0  0  0  0  0  0
  -11.7109  -25.8284   31.2596 C   0  0  0  0  0  0  0  0  0  0  0  0
  -12.3867  -26.0912   30.1639 N   0  0  0  0  0  0  0  0  0  0  0  0
  -12.1341  -24.9696   32.3927 C   0  0  0  0  0  0  0  0  0  0  0  0
  -11.0693  -24.7423   33.4327 C   0  0  0  0  0  0  0  0  0  0  0  0
   -9.6148  -24.9068   33.0240 C   0  0  0  0  0  0  0  0  0  0  0  0
   -9.3153  -25.6392   31.7309 C   0  0  0  0  0  0  0  0  0  0  0  0
  -12.1770  -23.9192   27.0547 C   0  0  0  0  0  0  0  0  0  0  0  0
  -10.8298  -24.4599   27.3042 C   0  0  0  0  0  0  0  0  0  0  0  0
  -10.4235  -24.1559   28.5363 C   0  0  0  0  0  0  0  0  0  0  0  0
  -11.1585  -23.2439   29.2872 N   0  0  0  0  0  0  0  0  0  0  0  0
  -11.1459  -22.8780   30.5973 C   0  0  0  0  0  0  0  0  0  0  0  0
  -11.8705  -21.7489   30.7067 C   0  0  0  0  0  0  0  0  0  0  0  0
  -12.3692  -21.4225   29.4916 N   0  0  0  0  0  0  0  0  0  0  0  0
  -12.0922  -22.4380   28.7067 C   0  0  0  0  0  0  0  0  0  0  0  0
  -12.6912  -22.8591   27.5785 N   0  0  0  0  0  0  0  0  0  0  0  0
  -13.6984  -27.2157   26.4976 H   0  0  0  0  0  0  0  0  0  0  0  0
  -14.3234  -27.4146   28.0459 H   0  0  0  0  0  0  0  0  0  0  0  0
  -12.2050  -28.4925   28.1514 H   0  0  0  0  0  0  0  0  0  0  0  0
  -11.3762  -27.1922   27.3071 H   0  0  0  0  0  0  0  0  0  0  0  0
   -9.4892  -27.4939   29.6428 H   0  0  0  0  0  0  0  0  0  0  0  0
  -12.5639  -24.0347   32.0363 H   0  0  0  0  0  0  0  0  0  0  0  0
  -12.9679  -25.3516   32.9498 H   0  0  0  0  0  0  0  0  0  0  0  0
  -11.2322  -25.4097   34.2840 H   0  0  0  0  0  0  0  0  0  0  0  0
  -11.2605  -23.7382   33.8200 H   0  0  0  0  0  0  0  0  0  0  0  0
   -9.0983  -25.4017   33.8498 H   0  0  0  0  0  0  0  0  0  0  0  0
   -9.1578  -23.9143   32.9602 H   0  0  0  0  0  0  0  0  0  0  0  0
   -8.9641  -24.9141   31.0040 H   0  0  0  0  0  0  0  0  0  0  0  0
   -8.4806  -26.3241   31.8111 H   0  0  0  0  0  0  0  0  0  0  0  0
  -10.4009  -25.2043   26.6640 H   0  0  0  0  0  0  0  0  0  0  0  0
   -9.5601  -24.6274   28.9716 H   0  0  0  0  0  0  0  0  0  0  0  0
  -10.5678  -23.3683   31.3420 H   0  0  0  0  0  0  0  0  0  0  0  0
  -12.0159  -21.1875   31.6160 H   0  0  0  0  0  0  0  0  0  0  0  0
  1  2  2  0
  2  3  1  0
  3  4  1  0
  4  5  1  0
  5  6  1  0
  6  7  2  0
  7  8  1  0
  8  9  1  0
  9 10  2  0
  9 11  1  0
 11 12  1  0
 12 13  1  0
 13 14  1  0
  2 15  1  0
 15 16  1  0
 16 17  2  0
 17 18  1  0
 18 19  1  0
 19 20  2  0
 20 21  1  0
 21 22  2  0
 22 23  1  0
 10  6  1  0
 23 15  2  0
 14  8  1  0
 22 18  1  0
  4 24  1  0
  4 25  1  0
  5 26  1  0
  5 27  1  0
  7 28  1  0
 11 29  1  0
 11 30  1  0
 12 31  1  0
 12 32  1  0
 13 33  1  0
 13 34  1  0
 14 35  1  0
 14 36  1  0
 16 37  1  0
 17 38  1  0
 19 39  1  0
 20 40  1  0
M  END
>  <Energy>  (1142) 
145.16686031401011

>  <compound_id>  (1142) 
62296

>  <target_id>  (1142) 
1

>  <reference_id>  (1142) 
107

>  <inspiration_ids>  (1142) 
[107, 35]

>  <energy_score>  (1142) 
28.97588174926227

>  <distance_score>  (1142) 
2.1985168732581

>  <path>  (1142) 
/opt/xchem-fragalysis-2/maxwin/BulkDock/SCRATCH/511021/C62296-P107/C62296-P107.minimised.mol

>  <scratch_subdir>  (1142) 
/opt/xchem-fragalysis-2/maxwin/BulkDock/SCRATCH/511021/C62296-P107

>  <fragmenstein_runtime>  (1142) 
5.354040861129761

>  <fragmenstein_outcome>  (1142) 
too moved

>  <fragmenstein_mode>  (1142) 
expansion

>  <fragmenstein_error>  (1142) 


$$$$
C62296-P35
     RDKit          3D

 40 43  0  0  0  0  0  0  0  0999 V2000
  -12.9402  -26.2147   26.8297 O   0  0  0  0  0  0  0  0  0  0  0  0
  -13.4127  -26.0179   27.9409 C   0  0  0  0  0  0  0  0  0  0  0  0
  -14.1750  -26.8760   28.6435 O   0  0  0  0  0  0  0  0  0  0  0  0
  -13.8148  -28.2571   28.4779 C   0  0  0  0  0  0  0  0  0  0  0  0
  -13.3701  -28.8467   29.8224 C   0  0  0  0  0  0  0  0  0  0  0  0
  -12.2062  -28.1294   30.4199 C   0  0  0  0  0  0  0  0  0  0  0  0
  -10.9503  -28.5683   30.7675 C   0  0  0  0  0  0  0  0  0  0  0  0
  -10.3329  -27.4721   31.2605 N   0  0  0  0  0  0  0  0  0  0  0  0
  -11.2180  -26.4472   31.3085 C   0  0  0  0  0  0  0  0  0  0  0  0
  -12.3459  -26.8082   30.7611 N   0  0  0  0  0  0  0  0  0  0  0  0
  -10.8347  -25.1869   31.9820 C   0  0  0  0  0  0  0  0  0  0  0  0
   -9.9407  -25.5343   33.1548 C   0  0  0  0  0  0  0  0  0  0  0  0
   -8.6950  -26.2168   32.6369 C   0  0  0  0  0  0  0  0  0  0  0  0
   -8.9509  -27.2592   31.5522 C   0  0  0  0  0  0  0  0  0  0  0  0
  -13.0823  -24.7495   28.7407 C   0  0  0  0  0  0  0  0  0  0  0  0
  -11.8795  -24.0090   28.2445 C   0  0  0  0  0  0  0  0  0  0  0  0
  -11.4674  -23.0104   29.0315 C   0  0  0  0  0  0  0  0  0  0  0  0
  -12.1133  -22.7695   30.2326 N   0  0  0  0  0  0  0  0  0  0  0  0
  -11.7669  -21.9690   31.2901 C   0  0  0  0  0  0  0  0  0  0  0  0
  -12.7715  -22.1222   32.2117 C   0  0  0  0  0  0  0  0  0  0  0  0
  -13.7366  -22.9524   31.7222 N   0  0  0  0  0  0  0  0  0  0  0  0
  -13.2958  -23.4106   30.5673 C   0  0  0  0  0  0  0  0  0  0  0  0
  -13.8027  -24.3946   29.7675 N   0  0  0  0  0  0  0  0  0  0  0  0
  -13.0183  -28.3967   27.7371 H   0  0  0  0  0  0  0  0  0  0  0  0
  -14.7023  -28.7881   28.1181 H   0  0  0  0  0  0  0  0  0  0  0  0
  -14.2022  -28.7825   30.5343 H   0  0  0  0  0  0  0  0  0  0  0  0
  -13.1316  -29.9084   29.6933 H   0  0  0  0  0  0  0  0  0  0  0  0
  -10.4675  -29.5234   30.6969 H   0  0  0  0  0  0  0  0  0  0  0  0
  -10.2954  -24.5442   31.2822 H   0  0  0  0  0  0  0  0  0  0  0  0
  -11.7076  -24.6579   32.3466 H   0  0  0  0  0  0  0  0  0  0  0  0
  -10.4348  -26.2508   33.8117 H   0  0  0  0  0  0  0  0  0  0  0  0
   -9.7031  -24.6392   33.7349 H   0  0  0  0  0  0  0  0  0  0  0  0
   -8.1379  -26.6426   33.4703 H   0  0  0  0  0  0  0  0  0  0  0  0
   -8.0700  -25.4379   32.1968 H   0  0  0  0  0  0  0  0  0  0  0  0
   -8.6101  -26.8343   30.6099 H   0  0  0  0  0  0  0  0  0  0  0  0
   -8.4490  -28.2122   31.7255 H   0  0  0  0  0  0  0  0  0  0  0  0
  -11.4325  -24.2619   27.2931 H   0  0  0  0  0  0  0  0  0  0  0  0
  -10.6460  -22.3682   28.7524 H   0  0  0  0  0  0  0  0  0  0  0  0
  -10.8603  -21.3873   31.3151 H   0  0  0  0  0  0  0  0  0  0  0  0
  -12.8649  -21.6715   33.1919 H   0  0  0  0  0  0  0  0  0  0  0  0
  1  2  2  0
  2  3  1  0
  3  4  1  0
  4  5  1  0
  5  6  1  0
  6  7  2  0
  7  8  1  0
  8  9  1  0
  9 10  2  0
  9 11  1  0
 11 12  1  0
 12 13  1  0
 13 14  1  0
  2 15  1  0
 15 16  1  0
 16 17  2  0
 17 18  1  0
 18 19  1  0
 19 20  2  0
 20 21  1  0
 21 22  2  0
 22 23  1  0
 10  6  1  0
 23 15  2  0
 14  8  1  0
 22 18  1  0
  4 24  1  0
  4 25  1  0
  5 26  1  0
  5 27  1  0
  7 28  1  0
 11 29  1  0
 11 30  1  0
 12 31  1  0
 12 32  1  0
 13 33  1  0
 13 34  1  0
 14 35  1  0
 14 36  1  0
 16 37  1  0
 17 38  1  0
 19 39  1  0
 20 40  1  0
M  END
>  <Energy>  (1143) 
91.46204988341421

>  <compound_id>  (1143) 
62296

>  <target_id>  (1143) 
1

>  <reference_id>  (1143) 
35

>  <inspiration_ids>  (1143) 
[107, 35]

>  <energy_score>  (1143) 
-26.97036558400015

>  <distance_score>  (1143) 
2.2049878179369777

>  <path>  (1143) 
/opt/xchem-fragalysis-2/maxwin/BulkDock/SCRATCH/511021/C62296-P35/C62296-P35.minimised.mol

>  <scratch_subdir>  (1143) 
/opt/xchem-fragalysis-2/maxwin/BulkDock/SCRATCH/511021/C62296-P35

>  <fragmenstein_runtime>  (1143) 
2.9890267848968506

>  <fragmenstein_outcome>  (1143) 
too moved

>  <fragmenstein_mode>  (1143) 
expansion

>  <fragmenstein_error>  (1143) 


$$$$
C62295-P107
     RDKit          3D

 35 38  0  0  0  0  0  0  0  0999 V2000
  -12.6100  -27.5169   28.0011 O   0  0  0  0  0  0  0  0  0  0  0  0
  -11.8839  -26.5705   28.0298 C   0  0  0  0  0  0  0  0  0  0  0  0
  -10.8779  -26.2007   28.9631 N   0  0  0  0  0  0  0  0  0  0  0  0
  -10.5133  -26.7582   30.1299 C   0  0  0  0  0  0  0  0  0  0  0  0
  -11.1410  -27.8218   30.7202 C   0  0  0  0  0  0  0  0  0  0  0  0
  -11.4381  -27.4674   31.9858 N   0  0  0  0  0  0  0  0  0  0  0  0
  -11.1413  -26.1946   32.0467 C   0  0  0  0  0  0  0  0  0  0  0  0
  -10.0808  -26.0896   31.2189 N   0  0  0  0  0  0  0  0  0  0  0  0
   -9.0428  -25.1641   31.4957 C   0  0  0  0  0  0  0  0  0  0  0  0
   -9.4174  -24.2809   32.6834 C   0  0  0  0  0  0  0  0  0  0  0  0
  -10.8561  -23.8082   32.5521 C   0  0  0  0  0  0  0  0  0  0  0  0
  -11.6889  -25.0424   32.8229 C   0  0  0  0  0  0  0  0  0  0  0  0
  -12.0632  -25.5401   27.0349 C   0  0  0  0  0  0  0  0  0  0  0  0
  -11.2491  -24.4989   26.6466 C   0  0  0  0  0  0  0  0  0  0  0  0
  -11.8528  -23.7056   25.7284 N   0  0  0  0  0  0  0  0  0  0  0  0
  -13.0428  -24.2200   25.5266 C   0  0  0  0  0  0  0  0  0  0  0  0
  -14.0184  -23.7882   24.6747 N   0  0  0  0  0  0  0  0  0  0  0  0
  -15.1210  -24.4710   24.6645 C   0  0  0  0  0  0  0  0  0  0  0  0
  -15.4105  -25.6666   25.4945 C   0  0  0  0  0  0  0  0  0  0  0  0
  -16.9196  -26.4440   25.3620 Cl  0  0  0  0  0  0  0  0  0  0  0  0
  -14.4248  -26.0598   26.3036 C   0  0  0  0  0  0  0  0  0  0  0  0
  -13.2251  -25.3546   26.3125 N   0  0  0  0  0  0  0  0  0  0  0  0
  -10.5204  -25.2934   28.7169 H   0  0  0  0  0  0  0  0  0  0  0  0
  -11.7011  -28.6289   30.2866 H   0  0  0  0  0  0  0  0  0  0  0  0
   -8.9205  -24.6735   30.5482 H   0  0  0  0  0  0  0  0  0  0  0  0
   -8.1490  -25.7270   31.7482 H   0  0  0  0  0  0  0  0  0  0  0  0
   -9.3260  -24.8960   33.5907 H   0  0  0  0  0  0  0  0  0  0  0  0
   -8.7429  -23.4531   32.8499 H   0  0  0  0  0  0  0  0  0  0  0  0
  -11.0508  -23.4041   31.5515 H   0  0  0  0  0  0  0  0  0  0  0  0
  -11.1175  -23.0261   33.2661 H   0  0  0  0  0  0  0  0  0  0  0  0
  -11.6456  -25.2389   33.8978 H   0  0  0  0  0  0  0  0  0  0  0  0
  -12.7254  -24.8404   32.5508 H   0  0  0  0  0  0  0  0  0  0  0  0
  -10.2460  -24.2670   26.9760 H   0  0  0  0  0  0  0  0  0  0  0  0
  -15.9306  -24.1487   23.9884 H   0  0  0  0  0  0  0  0  0  0  0  0
  -14.5231  -26.9279   26.9384 H   0  0  0  0  0  0  0  0  0  0  0  0
  1  2  2  0
  2  3  1  0
  3  4  1  0
  4  5  2  0
  5  6  1  0
  6  7  2  0
  7  8  1  0
  8  9  1  0
  9 10  1  0
 10 11  1  0
 11 12  1  0
  2 13  1  0
 13 14  2  0
 14 15  1  0
 15 16  2  0
 16 17  1  0
 17 18  2  0
 18 19  1  0
 19 20  1  0
 19 21  2  0
 21 22  1  0
  8  4  1  0
 22 13  1  0
 12  7  1  0
 22 16  1  0
  3 23  1  0
  5 24  1  0
  9 25  1  0
  9 26  1  0
 10 27  1  0
 10 28  1  0
 11 29  1  0
 11 30  1  0
 12 31  1  0
 12 32  1  0
 14 33  1  0
 18 34  1  0
 21 35  1  0
M  END
>  <Energy>  (1144) 
70.043711433169534

>  <compound_id>  (1144) 
62295

>  <target_id>  (1144) 
1

>  <reference_id>  (1144) 
107

>  <inspiration_ids>  (1144) 
[107, 35]

>  <energy_score>  (1144) 
4.610273397657949

>  <distance_score>  (1144) 
4.715931727972482

>  <path>  (1144) 
/opt/xchem-fragalysis-2/maxwin/BulkDock/SCRATCH/511021/C62295-P107/C62295-P107.minimised.mol

>  <scratch_subdir>  (1144) 
/opt/xchem-fragalysis-2/maxwin/BulkDock/SCRATCH/511021/C62295-P107

>  <fragmenstein_runtime>  (1144) 
6.787590980529785

>  <fragmenstein_outcome>  (1144) 
too moved

>  <fragmenstein_mode>  (1144) 
expansion

>  <fragmenstein_error>  (1144) 


$$$$
C62295-P35
     RDKit          3D

 35 38  0  0  0  0  0  0  0  0999 V2000
  -15.2928  -26.2011   31.2716 O   0  0  0  0  0  0  0  0  0  0  0  0
  -14.2661  -25.7145   30.9016 C   0  0  0  0  0  0  0  0  0  0  0  0
  -13.0290  -26.3235   30.5023 N   0  0  0  0  0  0  0  0  0  0  0  0
  -12.6286  -27.6202   30.5146 C   0  0  0  0  0  0  0  0  0  0  0  0
  -13.0389  -28.6010   31.3789 C   0  0  0  0  0  0  0  0  0  0  0  0
  -12.1888  -28.5088   32.4799 N   0  0  0  0  0  0  0  0  0  0  0  0
  -11.1854  -27.7597   32.0257 C   0  0  0  0  0  0  0  0  0  0  0  0
  -11.2640  -27.7682   30.6429 N   0  0  0  0  0  0  0  0  0  0  0  0
  -10.2522  -27.1723   29.7899 C   0  0  0  0  0  0  0  0  0  0  0  0
   -9.5779  -25.9854   30.4689 C   0  0  0  0  0  0  0  0  0  0  0  0
   -9.1349  -26.3742   31.8805 C   0  0  0  0  0  0  0  0  0  0  0  0
  -10.3328  -26.7439   32.7295 C   0  0  0  0  0  0  0  0  0  0  0  0
  -14.0043  -24.2889   30.8684 C   0  0  0  0  0  0  0  0  0  0  0  0
  -14.1059  -23.3332   31.8585 C   0  0  0  0  0  0  0  0  0  0  0  0
  -13.2784  -22.2611   31.5828 N   0  0  0  0  0  0  0  0  0  0  0  0
  -12.7184  -22.5216   30.4223 C   0  0  0  0  0  0  0  0  0  0  0  0
  -11.7701  -21.8276   29.7263 N   0  0  0  0  0  0  0  0  0  0  0  0
  -11.4495  -22.3084   28.5589 C   0  0  0  0  0  0  0  0  0  0  0  0
  -12.0157  -23.5167   27.9098 C   0  0  0  0  0  0  0  0  0  0  0  0
  -11.5188  -24.0613   26.3841 Cl  0  0  0  0  0  0  0  0  0  0  0  0
  -12.9394  -24.1500   28.6246 C   0  0  0  0  0  0  0  0  0  0  0  0
  -13.2731  -23.6704   29.8843 N   0  0  0  0  0  0  0  0  0  0  0  0
  -12.3498  -25.6053   30.3320 H   0  0  0  0  0  0  0  0  0  0  0  0
  -14.0130  -29.0565   31.4209 H   0  0  0  0  0  0  0  0  0  0  0  0
   -9.5397  -27.9724   29.5737 H   0  0  0  0  0  0  0  0  0  0  0  0
  -10.7196  -26.8718   28.8463 H   0  0  0  0  0  0  0  0  0  0  0  0
   -8.7337  -25.6475   29.8690 H   0  0  0  0  0  0  0  0  0  0  0  0
  -10.2655  -25.1338   30.5285 H   0  0  0  0  0  0  0  0  0  0  0  0
   -8.5946  -25.5447   32.3401 H   0  0  0  0  0  0  0  0  0  0  0  0
   -8.4747  -27.2441   31.8408 H   0  0  0  0  0  0  0  0  0  0  0  0
  -10.9114  -25.8266   32.8673 H   0  0  0  0  0  0  0  0  0  0  0  0
  -10.0288  -27.0639   33.7253 H   0  0  0  0  0  0  0  0  0  0  0  0
  -14.6214  -23.4092   32.8092 H   0  0  0  0  0  0  0  0  0  0  0  0
  -10.6773  -21.7872   27.9877 H   0  0  0  0  0  0  0  0  0  0  0  0
  -13.4423  -25.0417   28.2663 H   0  0  0  0  0  0  0  0  0  0  0  0
  1  2  2  0
  2  3  1  0
  3  4  1  0
  4  5  2  0
  5  6  1  0
  6  7  2  0
  7  8  1  0
  8  9  1  0
  9 10  1  0
 10 11  1  0
 11 12  1  0
  2 13  1  0
 13 14  2  0
 14 15  1  0
 15 16  2  0
 16 17  1  0
 17 18  2  0
 18 19  1  0
 19 20  1  0
 19 21  2  0
 21 22  1  0
  8  4  1  0
 22 13  1  0
 12  7  1  0
 22 16  1  0
  3 23  1  0
  5 24  1  0
  9 25  1  0
  9 26  1  0
 10 27  1  0
 10 28  1  0
 11 29  1  0
 11 30  1  0
 12 31  1  0
 12 32  1  0
 14 33  1  0
 18 34  1  0
 21 35  1  0
M  END
>  <Energy>  (1145) 
97.168487028198086

>  <compound_id>  (1145) 
62295

>  <target_id>  (1145) 
1

>  <reference_id>  (1145) 
35

>  <inspiration_ids>  (1145) 
[107, 35]

>  <energy_score>  (1145) 
31.735048992686245

>  <distance_score>  (1145) 
2.6503472171930693

>  <path>  (1145) 
/opt/xchem-fragalysis-2/maxwin/BulkDock/SCRATCH/511021/C62295-P35/C62295-P35.minimised.mol

>  <scratch_subdir>  (1145) 
/opt/xchem-fragalysis-2/maxwin/BulkDock/SCRATCH/511021/C62295-P35

>  <fragmenstein_runtime>  (1145) 
4.280699253082275

>  <fragmenstein_outcome>  (1145) 
too moved

>  <fragmenstein_mode>  (1145) 
expansion

>  <fragmenstein_error>  (1145) 


$$$$
C47251-P107
     RDKit          3D

 34 36  0  0  0  0  0  0  0  0999 V2000
  -13.1944  -24.2333   33.4930 O   0  0  0  0  0  0  0  0  0  0  0  0
  -12.1600  -23.9417   32.9154 C   0  0  0  0  0  0  0  0  0  0  0  0
  -10.7983  -24.4974   33.2663 C   0  0  0  0  0  0  0  0  0  0  0  0
  -10.1427  -25.3041   32.1870 C   0  0  0  0  0  0  0  0  0  0  0  0
  -10.8260  -26.5765   32.1275 N   0  0  0  0  0  0  0  0  0  0  0  0
  -10.4955  -27.5949   30.8626 S   0  0  0  0  0  0  0  0  0  0  0  0
   -9.0948  -27.9038   30.9155 O   0  0  0  0  0  0  0  0  0  0  0  0
  -11.5417  -28.5891   30.8470 O   0  0  0  0  0  0  0  0  0  0  0  0
  -10.5833  -26.7709   29.3715 C   0  0  0  0  0  0  0  0  0  0  0  0
   -9.7444  -25.7329   29.0449 C   0  0  0  0  0  0  0  0  0  0  0  0
  -10.0507  -25.4270   27.7727 N   0  0  0  0  0  0  0  0  0  0  0  0
  -10.9759  -26.3286   27.3439 C   0  0  0  0  0  0  0  0  0  0  0  0
  -11.3874  -27.1100   28.3096 N   0  0  0  0  0  0  0  0  0  0  0  0
  -12.0726  -22.9777   31.8731 C   0  0  0  0  0  0  0  0  0  0  0  0
  -11.6170  -21.6920   31.9460 C   0  0  0  0  0  0  0  0  0  0  0  0
  -11.2946  -21.2384   30.7011 N   0  0  0  0  0  0  0  0  0  0  0  0
  -11.7297  -22.1363   29.8539 C   0  0  0  0  0  0  0  0  0  0  0  0
  -11.6765  -22.1255   28.4945 N   0  0  0  0  0  0  0  0  0  0  0  0
  -12.2364  -23.1293   27.8991 C   0  0  0  0  0  0  0  0  0  0  0  0
  -12.8683  -24.2943   28.5606 C   0  0  0  0  0  0  0  0  0  0  0  0
  -12.7361  -24.3114   29.8880 C   0  0  0  0  0  0  0  0  0  0  0  0
  -12.2377  -23.2185   30.5429 N   0  0  0  0  0  0  0  0  0  0  0  0
  -10.8549  -25.0431   34.2119 H   0  0  0  0  0  0  0  0  0  0  0  0
  -10.1457  -23.6307   33.3396 H   0  0  0  0  0  0  0  0  0  0  0  0
  -10.2119  -24.7601   31.2550 H   0  0  0  0  0  0  0  0  0  0  0  0
   -9.0818  -25.4428   32.4174 H   0  0  0  0  0  0  0  0  0  0  0  0
  -10.4568  -27.1478   32.9049 H   0  0  0  0  0  0  0  0  0  0  0  0
   -8.9764  -25.2179   29.5929 H   0  0  0  0  0  0  0  0  0  0  0  0
   -9.6655  -24.6675   27.2286 H   0  0  0  0  0  0  0  0  0  0  0  0
  -11.3418  -26.3332   26.3264 H   0  0  0  0  0  0  0  0  0  0  0  0
  -11.4344  -21.0930   32.8256 H   0  0  0  0  0  0  0  0  0  0  0  0
  -12.2367  -23.1619   26.7967 H   0  0  0  0  0  0  0  0  0  0  0  0
  -13.2961  -25.0962   27.9790 H   0  0  0  0  0  0  0  0  0  0  0  0
  -13.0115  -25.1387   30.5110 H   0  0  0  0  0  0  0  0  0  0  0  0
  1  2  2  0
  2  3  1  0
  3  4  1  0
  4  5  1  0
  5  6  1  0
  6  7  2  0
  6  8  2  0
  6  9  1  0
  9 10  2  0
 10 11  1  0
 11 12  1  0
 12 13  2  0
  2 14  1  0
 14 15  2  0
 15 16  1  0
 16 17  2  0
 17 18  1  0
 18 19  2  0
 19 20  1  0
 20 21  2  0
 21 22  1  0
 13  9  1  0
 22 14  1  0
 22 17  1  0
  3 23  1  0
  3 24  1  0
  4 25  1  0
  4 26  1  0
  5 27  1  0
 10 28  1  0
 11 29  1  0
 12 30  1  0
 15 31  1  0
 19 32  1  0
 20 33  1  0
 21 34  1  0
M  END
>  <Energy>  (1146) 
60.159992926286371

>  <compound_id>  (1146) 
47251

>  <target_id>  (1146) 
1

>  <reference_id>  (1146) 
107

>  <inspiration_ids>  (1146) 
[107, 35]

>  <energy_score>  (1146) 
-17.630668372711057

>  <distance_score>  (1146) 
2.5961875656488287

>  <path>  (1146) 
/opt/xchem-fragalysis-2/maxwin/BulkDock/SCRATCH/511021/C47251-P107/C47251-P107.minimised.mol

>  <scratch_subdir>  (1146) 
/opt/xchem-fragalysis-2/maxwin/BulkDock/SCRATCH/511021/C47251-P107

>  <fragmenstein_runtime>  (1146) 
2.6226444244384766

>  <fragmenstein_outcome>  (1146) 
too moved

>  <fragmenstein_mode>  (1146) 
expansion

>  <fragmenstein_error>  (1146) 


$$$$
C47251-P35
     RDKit          3D

 34 36  0  0  0  0  0  0  0  0999 V2000
  -12.8676  -25.8217   31.2961 O   0  0  0  0  0  0  0  0  0  0  0  0
  -12.0245  -25.0196   31.6962 C   0  0  0  0  0  0  0  0  0  0  0  0
  -10.8286  -25.4250   32.5404 C   0  0  0  0  0  0  0  0  0  0  0  0
  -10.7608  -26.9314   32.8629 C   0  0  0  0  0  0  0  0  0  0  0  0
  -11.9462  -27.7938   32.4135 N   0  0  0  0  0  0  0  0  0  0  0  0
  -11.7601  -28.7815   31.0284 S   0  0  0  0  0  0  0  0  0  0  0  0
  -10.9620  -29.8994   31.4405 O   0  0  0  0  0  0  0  0  0  0  0  0
  -13.0475  -28.9158   30.3908 O   0  0  0  0  0  0  0  0  0  0  0  0
  -10.7262  -27.8655   29.9871 C   0  0  0  0  0  0  0  0  0  0  0  0
   -9.4055  -27.7122   30.3255 C   0  0  0  0  0  0  0  0  0  0  0  0
   -9.1355  -26.4200   29.9925 N   0  0  0  0  0  0  0  0  0  0  0  0
  -10.1124  -26.0105   29.1523 C   0  0  0  0  0  0  0  0  0  0  0  0
  -11.1288  -26.8381   29.1652 N   0  0  0  0  0  0  0  0  0  0  0  0
  -12.0527  -23.6893   31.2353 C   0  0  0  0  0  0  0  0  0  0  0  0
  -11.6976  -22.4765   31.7647 C   0  0  0  0  0  0  0  0  0  0  0  0
  -11.5092  -21.5797   30.7456 N   0  0  0  0  0  0  0  0  0  0  0  0
  -11.7495  -22.2465   29.6340 C   0  0  0  0  0  0  0  0  0  0  0  0
  -11.4502  -21.9443   28.3500 N   0  0  0  0  0  0  0  0  0  0  0  0
  -11.7964  -22.8080   27.4478 C   0  0  0  0  0  0  0  0  0  0  0  0
  -12.5063  -24.0811   27.6561 C   0  0  0  0  0  0  0  0  0  0  0  0
  -12.7742  -24.3330   28.9358 C   0  0  0  0  0  0  0  0  0  0  0  0
  -12.3173  -23.4646   29.9191 N   0  0  0  0  0  0  0  0  0  0  0  0
  -10.8225  -24.8328   33.4585 H   0  0  0  0  0  0  0  0  0  0  0  0
   -9.9125  -25.1229   32.0242 H   0  0  0  0  0  0  0  0  0  0  0  0
   -9.7955  -27.3179   32.5646 H   0  0  0  0  0  0  0  0  0  0  0  0
  -10.6885  -27.0506   33.9413 H   0  0  0  0  0  0  0  0  0  0  0  0
  -12.7010  -27.1613   32.0681 H   0  0  0  0  0  0  0  0  0  0  0  0
   -8.7614  -28.2959   30.9750 H   0  0  0  0  0  0  0  0  0  0  0  0
   -8.3180  -25.8921   30.2718 H   0  0  0  0  0  0  0  0  0  0  0  0
  -10.0549  -25.0761   28.6173 H   0  0  0  0  0  0  0  0  0  0  0  0
  -11.4601  -22.2196   32.7896 H   0  0  0  0  0  0  0  0  0  0  0  0
  -11.5919  -22.5890   26.3948 H   0  0  0  0  0  0  0  0  0  0  0  0
  -12.7872  -24.7101   26.8250 H   0  0  0  0  0  0  0  0  0  0  0  0
  -13.2846  -25.2447   29.2189 H   0  0  0  0  0  0  0  0  0  0  0  0
  1  2  2  0
  2  3  1  0
  3  4  1  0
  4  5  1  0
  5  6  1  0
  6  7  2  0
  6  8  2  0
  6  9  1  0
  9 10  2  0
 10 11  1  0
 11 12  1  0
 12 13  2  0
  2 14  1  0
 14 15  2  0
 15 16  1  0
 16 17  2  0
 17 18  1  0
 18 19  2  0
 19 20  1  0
 20 21  2  0
 21 22  1  0
 13  9  1  0
 22 14  1  0
 22 17  1  0
  3 23  1  0
  3 24  1  0
  4 25  1  0
  4 26  1  0
  5 27  1  0
 10 28  1  0
 11 29  1  0
 12 30  1  0
 15 31  1  0
 19 32  1  0
 20 33  1  0
 21 34  1  0
M  END
>  <Energy>  (1147) 
84.114491264240755

>  <compound_id>  (1147) 
47251

>  <target_id>  (1147) 
1

>  <reference_id>  (1147) 
35

>  <inspiration_ids>  (1147) 
[107, 35]

>  <energy_score>  (1147) 
6.323829965240066

>  <distance_score>  (1147) 
2.080191029055298

>  <path>  (1147) 
/opt/xchem-fragalysis-2/maxwin/BulkDock/SCRATCH/511021/C47251-P35/C47251-P35.minimised.mol

>  <scratch_subdir>  (1147) 
/opt/xchem-fragalysis-2/maxwin/BulkDock/SCRATCH/511021/C47251-P35

>  <fragmenstein_runtime>  (1147) 
2.168818235397339

>  <fragmenstein_outcome>  (1147) 
too moved

>  <fragmenstein_mode>  (1147) 
expansion

>  <fragmenstein_error>  (1147) 


$$$$
C19444-P107
     RDKit          3D

 35 38  0  0  0  0  0  0  0  0999 V2000
  -14.4574  -23.7752   33.9939 O   0  0  0  0  0  0  0  0  0  0  0  0
  -13.8966  -22.9035   33.4586 C   0  0  0  0  0  0  0  0  0  0  0  0
  -14.0924  -21.3776   33.5599 N   0  0  0  0  0  0  0  0  0  0  0  0
  -15.0438  -20.6355   34.2413 C   0  0  0  0  0  0  0  0  0  0  0  0
  -16.2240  -21.2636   34.6144 C   0  0  0  0  0  0  0  0  0  0  0  0
  -17.1756  -20.5764   35.3599 C   0  0  0  0  0  0  0  0  0  0  0  0
  -16.9106  -19.2782   35.7889 C   0  0  0  0  0  0  0  0  0  0  0  0
  -15.6964  -18.6449   35.4742 C   0  0  0  0  0  0  0  0  0  0  0  0
  -15.4148  -17.3340   36.0613 C   0  0  0  0  0  0  0  0  0  0  0  0
  -15.9083  -16.7339   37.2091 C   0  0  0  0  0  0  0  0  0  0  0  0
  -15.4888  -15.4377   37.3281 N   0  0  0  0  0  0  0  0  0  0  0  0
  -14.7480  -15.2288   36.2663 C   0  0  0  0  0  0  0  0  0  0  0  0
  -14.5925  -16.3667   35.5257 N   0  0  0  0  0  0  0  0  0  0  0  0
  -14.7800  -19.3196   34.6498 C   0  0  0  0  0  0  0  0  0  0  0  0
  -12.8813  -23.1306   32.4305 C   0  0  0  0  0  0  0  0  0  0  0  0
  -12.1489  -24.2753   32.2200 C   0  0  0  0  0  0  0  0  0  0  0  0
  -11.7291  -24.1818   30.9275 N   0  0  0  0  0  0  0  0  0  0  0  0
  -11.1490  -25.1438   30.1148 C   0  0  0  0  0  0  0  0  0  0  0  0
  -10.9295  -24.8577   28.8245 C   0  0  0  0  0  0  0  0  0  0  0  0
  -11.3299  -23.4807   28.4077 C   0  0  0  0  0  0  0  0  0  0  0  0
  -11.8272  -22.5528   29.1671 N   0  0  0  0  0  0  0  0  0  0  0  0
  -12.0582  -22.9087   30.4649 C   0  0  0  0  0  0  0  0  0  0  0  0
  -12.6411  -22.2117   31.4172 N   0  0  0  0  0  0  0  0  0  0  0  0
  -13.4889  -20.9159   32.8954 H   0  0  0  0  0  0  0  0  0  0  0  0
  -16.4374  -22.2877   34.3122 H   0  0  0  0  0  0  0  0  0  0  0  0
  -18.1112  -21.0630   35.6226 H   0  0  0  0  0  0  0  0  0  0  0  0
  -17.6646  -18.7716   36.3871 H   0  0  0  0  0  0  0  0  0  0  0  0
  -16.5742  -17.1675   37.9442 H   0  0  0  0  0  0  0  0  0  0  0  0
  -14.3000  -14.2867   35.9800 H   0  0  0  0  0  0  0  0  0  0  0  0
  -14.0669  -16.4274   34.6646 H   0  0  0  0  0  0  0  0  0  0  0  0
  -13.8059  -18.8859   34.4417 H   0  0  0  0  0  0  0  0  0  0  0  0
  -12.0708  -25.1810   32.7958 H   0  0  0  0  0  0  0  0  0  0  0  0
  -10.9195  -26.1019   30.5650 H   0  0  0  0  0  0  0  0  0  0  0  0
  -10.4923  -25.5370   28.1082 H   0  0  0  0  0  0  0  0  0  0  0  0
  -11.1616  -23.2534   27.3427 H   0  0  0  0  0  0  0  0  0  0  0  0
  1  2  2  0
  2  3  1  0
  3  4  1  0
  4  5  2  0
  5  6  1  0
  6  7  2  0
  7  8  1  0
  8  9  1  0
  9 10  2  0
 10 11  1  0
 11 12  2  0
 12 13  1  0
  8 14  2  0
  2 15  1  0
 15 16  2  0
 16 17  1  0
 17 18  1  0
 18 19  2  0
 19 20  1  0
 20 21  2  0
 21 22  1  0
 22 23  2  0
 14  4  1  0
 23 15  1  0
 13  9  1  0
 22 17  1  0
  3 24  1  0
  5 25  1  0
  6 26  1  0
  7 27  1  0
 10 28  1  0
 12 29  1  0
 13 30  1  0
 14 31  1  0
 16 32  1  0
 18 33  1  0
 19 34  1  0
 20 35  1  0
M  END
>  <Energy>  (1148) 
68.279053635217807

>  <compound_id>  (1148) 
19444

>  <target_id>  (1148) 
1

>  <reference_id>  (1148) 
107

>  <inspiration_ids>  (1148) 
[107, 35]

>  <energy_score>  (1148) 
-8.787412837533154

>  <distance_score>  (1148) 
2.3657389080955618

>  <path>  (1148) 
/opt/xchem-fragalysis-2/maxwin/BulkDock/SCRATCH/511021/C19444-P107/C19444-P107.minimised.mol

>  <scratch_subdir>  (1148) 
/opt/xchem-fragalysis-2/maxwin/BulkDock/SCRATCH/511021/C19444-P107

>  <fragmenstein_runtime>  (1148) 
5.105223178863525

>  <fragmenstein_outcome>  (1148) 
too moved

>  <fragmenstein_mode>  (1148) 
expansion

>  <fragmenstein_error>  (1148) 


$$$$
C19444-P35
     RDKit          3D

 35 38  0  0  0  0  0  0  0  0999 V2000
  -12.6375  -21.1332   34.3899 O   0  0  0  0  0  0  0  0  0  0  0  0
  -13.1341  -21.5540   33.4198 C   0  0  0  0  0  0  0  0  0  0  0  0
  -14.5641  -21.3659   32.8633 N   0  0  0  0  0  0  0  0  0  0  0  0
  -15.6651  -20.7257   33.4084 C   0  0  0  0  0  0  0  0  0  0  0  0
  -16.8829  -21.0703   32.8489 C   0  0  0  0  0  0  0  0  0  0  0  0
  -18.0602  -20.4707   33.2826 C   0  0  0  0  0  0  0  0  0  0  0  0
  -18.0145  -19.5158   34.2919 C   0  0  0  0  0  0  0  0  0  0  0  0
  -16.7933  -19.1445   34.8730 C   0  0  0  0  0  0  0  0  0  0  0  0
  -16.7904  -18.1432   35.9420 C   0  0  0  0  0  0  0  0  0  0  0  0
  -17.8187  -17.5786   36.6810 C   0  0  0  0  0  0  0  0  0  0  0  0
  -17.3516  -16.6873   37.6123 N   0  0  0  0  0  0  0  0  0  0  0  0
  -16.0498  -16.7139   37.4718 C   0  0  0  0  0  0  0  0  0  0  0  0
  -15.6687  -17.5264   36.4440 N   0  0  0  0  0  0  0  0  0  0  0  0
  -15.6127  -19.7567   34.4065 C   0  0  0  0  0  0  0  0  0  0  0  0
  -12.4407  -22.3608   32.4114 C   0  0  0  0  0  0  0  0  0  0  0  0
  -11.4376  -23.2956   32.5508 C   0  0  0  0  0  0  0  0  0  0  0  0
  -11.3274  -23.8847   31.3158 N   0  0  0  0  0  0  0  0  0  0  0  0
  -10.5748  -24.9739   30.8977 C   0  0  0  0  0  0  0  0  0  0  0  0
  -10.5978  -25.3246   29.6030 C   0  0  0  0  0  0  0  0  0  0  0  0
  -11.4343  -24.4565   28.7235 C   0  0  0  0  0  0  0  0  0  0  0  0
  -12.1576  -23.4494   29.1007 N   0  0  0  0  0  0  0  0  0  0  0  0
  -12.1373  -23.1739   30.4343 C   0  0  0  0  0  0  0  0  0  0  0  0
  -12.8440  -22.2870   31.0876 N   0  0  0  0  0  0  0  0  0  0  0  0
  -14.6851  -21.9457   32.0309 H   0  0  0  0  0  0  0  0  0  0  0  0
  -16.9456  -21.8177   32.0615 H   0  0  0  0  0  0  0  0  0  0  0  0
  -19.0095  -20.7511   32.8347 H   0  0  0  0  0  0  0  0  0  0  0  0
  -18.9493  -19.0606   34.6091 H   0  0  0  0  0  0  0  0  0  0  0  0
  -18.8797  -17.7755   36.5951 H   0  0  0  0  0  0  0  0  0  0  0  0
  -15.3425  -16.1749   38.0832 H   0  0  0  0  0  0  0  0  0  0  0  0
  -14.7200  -17.6907   36.1411 H   0  0  0  0  0  0  0  0  0  0  0  0
  -14.6431  -19.4779   34.7972 H   0  0  0  0  0  0  0  0  0  0  0  0
  -10.8781  -23.6345   33.4101 H   0  0  0  0  0  0  0  0  0  0  0  0
   -9.9887  -25.4913   31.6466 H   0  0  0  0  0  0  0  0  0  0  0  0
  -10.0450  -26.1506   29.1788 H   0  0  0  0  0  0  0  0  0  0  0  0
  -11.4139  -24.7229   27.6534 H   0  0  0  0  0  0  0  0  0  0  0  0
  1  2  2  0
  2  3  1  0
  3  4  1  0
  4  5  2  0
  5  6  1  0
  6  7  2  0
  7  8  1  0
  8  9  1  0
  9 10  2  0
 10 11  1  0
 11 12  2  0
 12 13  1  0
  8 14  2  0
  2 15  1  0
 15 16  2  0
 16 17  1  0
 17 18  1  0
 18 19  2  0
 19 20  1  0
 20 21  2  0
 21 22  1  0
 22 23  2  0
 14  4  1  0
 23 15  1  0
 13  9  1  0
 22 17  1  0
  3 24  1  0
  5 25  1  0
  6 26  1  0
  7 27  1  0
 10 28  1  0
 12 29  1  0
 13 30  1  0
 14 31  1  0
 16 32  1  0
 18 33  1  0
 19 34  1  0
 20 35  1  0
M  END
>  <Energy>  (1149) 
62.89899065995192

>  <compound_id>  (1149) 
19444

>  <target_id>  (1149) 
1

>  <reference_id>  (1149) 
35

>  <inspiration_ids>  (1149) 
[107, 35]

>  <energy_score>  (1149) 
-14.1674758128014

>  <distance_score>  (1149) 
2.4310603050191824

>  <path>  (1149) 
/opt/xchem-fragalysis-2/maxwin/BulkDock/SCRATCH/511021/C19444-P35/C19444-P35.minimised.mol

>  <scratch_subdir>  (1149) 
/opt/xchem-fragalysis-2/maxwin/BulkDock/SCRATCH/511021/C19444-P35

>  <fragmenstein_runtime>  (1149) 
6.584557771682739

>  <fragmenstein_outcome>  (1149) 
too moved

>  <fragmenstein_mode>  (1149) 
expansion

>  <fragmenstein_error>  (1149) 


$$$$
C47259-P107
     RDKit          3D

 32 35  0  0  0  0  0  0  0  0999 V2000
  -11.3784  -25.4996   26.6311 C   0  0  0  0  0  0  0  0  0  0  0  0
  -12.1276  -24.2126   26.6663 C   0  0  0  0  0  0  0  0  0  0  0  0
  -12.4705  -23.5548   27.7274 N   0  0  0  0  0  0  0  0  0  0  0  0
  -12.0972  -24.1026   28.9162 C   0  0  0  0  0  0  0  0  0  0  0  0
  -12.3397  -23.6676   30.1262 N   0  0  0  0  0  0  0  0  0  0  0  0
  -11.6895  -24.5388   30.9820 C   0  0  0  0  0  0  0  0  0  0  0  0
  -11.6320  -24.2578   32.4340 C   0  0  0  0  0  0  0  0  0  0  0  0
  -10.9735  -22.5961   32.6206 S   0  0  0  0  0  0  0  0  0  0  0  0
   -9.2376  -22.8983   32.9415 C   0  0  0  0  0  0  0  0  0  0  0  0
   -8.5867  -23.9899   32.5857 N   0  0  0  0  0  0  0  0  0  0  0  0
   -7.3100  -23.4772   32.3833 C   0  0  0  0  0  0  0  0  0  0  0  0
   -7.1234  -21.9573   32.4497 C   0  0  0  0  0  0  0  0  0  0  0  0
   -8.2264  -21.6732   33.1173 N   0  0  0  0  0  0  0  0  0  0  0  0
   -5.4799  -21.3449   32.3068 C   0  0  0  0  0  0  0  0  0  0  0  0
   -4.5113  -23.1078   31.8464 C   0  0  0  0  0  0  0  0  0  0  0  0
   -5.7759  -24.2615   31.9688 C   0  0  0  0  0  0  0  0  0  0  0  0
  -11.0812  -25.5515   30.2749 C   0  0  0  0  0  0  0  0  0  0  0  0
  -11.3506  -25.2744   28.9672 N   0  0  0  0  0  0  0  0  0  0  0  0
  -10.9925  -25.9681   27.8249 C   0  0  0  0  0  0  0  0  0  0  0  0
  -11.1695  -25.9699   25.6847 H   0  0  0  0  0  0  0  0  0  0  0  0
  -12.4043  -23.8061   25.6788 H   0  0  0  0  0  0  0  0  0  0  0  0
  -11.0354  -24.9972   32.9767 H   0  0  0  0  0  0  0  0  0  0  0  0
  -12.6438  -24.2800   32.8503 H   0  0  0  0  0  0  0  0  0  0  0  0
   -8.4897  -20.6972   33.0718 H   0  0  0  0  0  0  0  0  0  0  0  0
   -5.7705  -20.8378   33.2251 H   0  0  0  0  0  0  0  0  0  0  0  0
   -5.3191  -20.5560   31.5805 H   0  0  0  0  0  0  0  0  0  0  0  0
   -3.5992  -23.5818   32.2158 H   0  0  0  0  0  0  0  0  0  0  0  0
   -4.0851  -23.1173   30.8199 H   0  0  0  0  0  0  0  0  0  0  0  0
   -5.3692  -25.0487   32.5593 H   0  0  0  0  0  0  0  0  0  0  0  0
   -5.9629  -24.8968   31.1796 H   0  0  0  0  0  0  0  0  0  0  0  0
  -10.4655  -26.3819   30.5933 H   0  0  0  0  0  0  0  0  0  0  0  0
  -10.4137  -26.8698   27.9605 H   0  0  0  0  0  0  0  0  0  0  0  0
  1  2  1  0
  2  3  2  0
  3  4  1  0
  4  5  2  0
  5  6  1  0
  6  7  1  0
  7  8  1  0
  8  9  1  0
  9 10  2  0
 10 11  1  0
 11 12  2  0
 12 13  1  0
 12 14  1  0
 14 15  1  0
 15 16  1  0
  6 17  2  0
 17 18  1  0
 18 19  1  0
 19  1  2  0
 18  4  1  0
 13  9  1  0
 16 11  1  0
  1 20  1  0
  2 21  1  0
  7 22  1  0
  7 23  1  0
 13 24  1  0
 14 25  1  0
 14 26  1  0
 15 27  1  0
 15 28  1  0
 16 29  1  0
 16 30  1  0
 17 31  1  0
 19 32  1  0
M  END
>  <Energy>  (1150) 
235.12697596242131

>  <compound_id>  (1150) 
47259

>  <target_id>  (1150) 
1

>  <reference_id>  (1150) 
107

>  <inspiration_ids>  (1150) 
[107, 35]

>  <energy_score>  (1150) 
147.81005551599696

>  <distance_score>  (1150) 
2.835989692549455

>  <path>  (1150) 
/opt/xchem-fragalysis-2/maxwin/BulkDock/SCRATCH/511021/C47259-P107/C47259-P107.minimised.mol

>  <scratch_subdir>  (1150) 
/opt/xchem-fragalysis-2/maxwin/BulkDock/SCRATCH/511021/C47259-P107

>  <fragmenstein_runtime>  (1150) 
6.895793676376343

>  <fragmenstein_outcome>  (1150) 
too moved

>  <fragmenstein_mode>  (1150) 
expansion

>  <fragmenstein_error>  (1150) 


$$$$
C47259-P35
     RDKit          3D

 32 35  0  0  0  0  0  0  0  0999 V2000
  -12.0791  -24.3903   29.1138 C   0  0  0  0  0  0  0  0  0  0  0  0
  -11.5702  -23.0397   28.7383 C   0  0  0  0  0  0  0  0  0  0  0  0
  -11.5031  -21.9962   29.5102 N   0  0  0  0  0  0  0  0  0  0  0  0
  -11.9509  -22.1673   30.7879 C   0  0  0  0  0  0  0  0  0  0  0  0
  -11.8859  -21.3439   31.8197 N   0  0  0  0  0  0  0  0  0  0  0  0
  -12.6523  -21.8978   32.8224 C   0  0  0  0  0  0  0  0  0  0  0  0
  -12.9355  -21.2617   34.1587 C   0  0  0  0  0  0  0  0  0  0  0  0
  -12.6269  -19.4908   34.4597 S   0  0  0  0  0  0  0  0  0  0  0  0
  -10.9683  -19.5009   34.8528 C   0  0  0  0  0  0  0  0  0  0  0  0
  -10.5545  -19.9260   36.0260 N   0  0  0  0  0  0  0  0  0  0  0  0
   -9.7793  -20.9526   35.6439 C   0  0  0  0  0  0  0  0  0  0  0  0
   -9.5404  -20.9472   34.2984 C   0  0  0  0  0  0  0  0  0  0  0  0
  -10.1293  -19.8335   33.8143 N   0  0  0  0  0  0  0  0  0  0  0  0
   -9.3676  -22.2628   33.6917 C   0  0  0  0  0  0  0  0  0  0  0  0
   -9.8875  -23.1524   34.8351 C   0  0  0  0  0  0  0  0  0  0  0  0
   -9.7927  -22.3251   36.1510 C   0  0  0  0  0  0  0  0  0  0  0  0
  -13.1334  -23.1166   32.3818 C   0  0  0  0  0  0  0  0  0  0  0  0
  -12.5748  -23.3449   31.1601 N   0  0  0  0  0  0  0  0  0  0  0  0
  -12.6068  -24.4647   30.3433 C   0  0  0  0  0  0  0  0  0  0  0  0
  -12.0530  -25.1992   28.3995 H   0  0  0  0  0  0  0  0  0  0  0  0
  -11.2272  -22.9469   27.6948 H   0  0  0  0  0  0  0  0  0  0  0  0
  -12.5256  -21.8600   34.9742 H   0  0  0  0  0  0  0  0  0  0  0  0
  -14.0237  -21.3115   34.2492 H   0  0  0  0  0  0  0  0  0  0  0  0
  -10.4324  -19.7760   32.8570 H   0  0  0  0  0  0  0  0  0  0  0  0
   -8.3230  -22.4271   33.4722 H   0  0  0  0  0  0  0  0  0  0  0  0
   -9.9467  -22.4432   32.7930 H   0  0  0  0  0  0  0  0  0  0  0  0
  -10.9385  -23.3604   34.6321 H   0  0  0  0  0  0  0  0  0  0  0  0
   -9.3821  -24.1130   34.8792 H   0  0  0  0  0  0  0  0  0  0  0  0
  -10.6406  -22.5430   36.7982 H   0  0  0  0  0  0  0  0  0  0  0  0
   -8.8516  -22.4761   36.6625 H   0  0  0  0  0  0  0  0  0  0  0  0
  -13.8211  -23.8180   32.8245 H   0  0  0  0  0  0  0  0  0  0  0  0
  -13.0669  -25.3572   30.7479 H   0  0  0  0  0  0  0  0  0  0  0  0
  1  2  1  0
  2  3  2  0
  3  4  1  0
  4  5  2  0
  5  6  1  0
  6  7  1  0
  7  8  1  0
  8  9  1  0
  9 10  2  0
 10 11  1  0
 11 12  2  0
 12 13  1  0
 12 14  1  0
 14 15  1  0
 15 16  1  0
  6 17  2  0
 17 18  1  0
 18 19  1  0
 19  1  2  0
 18  4  1  0
 13  9  1  0
 16 11  1  0
  1 20  1  0
  2 21  1  0
  7 22  1  0
  7 23  1  0
 13 24  1  0
 14 25  1  0
 14 26  1  0
 15 27  1  0
 15 28  1  0
 16 29  1  0
 16 30  1  0
 17 31  1  0
 19 32  1  0
M  END
>  <Energy>  (1151) 
86.176028026281088

>  <compound_id>  (1151) 
47259

>  <target_id>  (1151) 
1

>  <reference_id>  (1151) 
35

>  <inspiration_ids>  (1151) 
[107, 35]

>  <energy_score>  (1151) 
-4.905132667271346

>  <distance_score>  (1151) 
2.0474696508935755

>  <path>  (1151) 
/opt/xchem-fragalysis-2/maxwin/BulkDock/SCRATCH/511021/C47259-P35/C47259-P35.minimised.mol

>  <scratch_subdir>  (1151) 
/opt/xchem-fragalysis-2/maxwin/BulkDock/SCRATCH/511021/C47259-P35

>  <fragmenstein_runtime>  (1151) 
4.640114784240723

>  <fragmenstein_outcome>  (1151) 
too moved

>  <fragmenstein_mode>  (1151) 
expansion

>  <fragmenstein_error>  (1151) 


$$$$
C47265-P107
     RDKit          3D

 35 37  0  0  0  0  0  0  0  0999 V2000
  -14.6936  -23.3511   34.2741 O   0  0  0  0  0  0  0  0  0  0  0  0
  -13.7900  -22.8371   33.7618 C   0  0  0  0  0  0  0  0  0  0  0  0
  -12.3574  -23.3248   33.5583 N   0  0  0  0  0  0  0  0  0  0  0  0
  -11.7734  -24.5463   33.8472 C   0  0  0  0  0  0  0  0  0  0  0  0
  -11.0610  -24.8148   32.6109 C   0  0  0  0  0  0  0  0  0  0  0  0
   -9.5970  -24.7376   32.4929 C   0  0  0  0  0  0  0  0  0  0  0  0
   -8.9021  -25.3493   31.5906 N   0  0  0  0  0  0  0  0  0  0  0  0
   -9.6686  -26.2208   30.8852 C   0  0  0  0  0  0  0  0  0  0  0  0
   -9.5816  -27.5274   30.8287 N   0  0  0  0  0  0  0  0  0  0  0  0
  -10.8491  -27.9210   30.5525 C   0  0  0  0  0  0  0  0  0  0  0  0
  -11.4858  -26.9312   29.8480 C   0  0  0  0  0  0  0  0  0  0  0  0
  -10.9753  -25.8999   30.5823 N   0  0  0  0  0  0  0  0  0  0  0  0
  -11.6915  -25.1724   31.4906 C   0  0  0  0  0  0  0  0  0  0  0  0
  -13.7386  -21.5345   33.0207 C   0  0  0  0  0  0  0  0  0  0  0  0
  -12.4306  -20.9285   33.1694 O   0  0  0  0  0  0  0  0  0  0  0  0
  -14.0798  -22.0036   31.5863 C   0  0  0  0  0  0  0  0  0  0  0  0
  -13.0287  -22.4576   30.5936 C   0  0  0  0  0  0  0  0  0  0  0  0
  -11.7820  -21.9529   30.2965 C   0  0  0  0  0  0  0  0  0  0  0  0
  -11.4432  -22.4783   29.0825 N   0  0  0  0  0  0  0  0  0  0  0  0
  -12.3774  -23.4086   28.7681 C   0  0  0  0  0  0  0  0  0  0  0  0
  -13.3504  -23.4123   29.6452 N   0  0  0  0  0  0  0  0  0  0  0  0
  -11.8012  -22.5804   33.1392 H   0  0  0  0  0  0  0  0  0  0  0  0
  -11.1320  -24.5859   34.7092 H   0  0  0  0  0  0  0  0  0  0  0  0
  -12.6049  -25.2233   34.0038 H   0  0  0  0  0  0  0  0  0  0  0  0
   -9.1062  -24.0227   33.1571 H   0  0  0  0  0  0  0  0  0  0  0  0
  -11.2149  -28.8996   30.8227 H   0  0  0  0  0  0  0  0  0  0  0  0
  -12.4407  -26.8697   29.3611 H   0  0  0  0  0  0  0  0  0  0  0  0
  -12.7624  -25.1904   31.4084 H   0  0  0  0  0  0  0  0  0  0  0  0
  -14.4981  -20.8587   33.4263 H   0  0  0  0  0  0  0  0  0  0  0  0
  -12.3260  -20.7302   34.1210 H   0  0  0  0  0  0  0  0  0  0  0  0
  -14.8151  -22.8004   31.6628 H   0  0  0  0  0  0  0  0  0  0  0  0
  -14.6936  -21.2292   31.1160 H   0  0  0  0  0  0  0  0  0  0  0  0
  -11.1676  -21.2144   30.7862 H   0  0  0  0  0  0  0  0  0  0  0  0
  -10.6356  -22.2420   28.5236 H   0  0  0  0  0  0  0  0  0  0  0  0
  -12.3148  -24.0262   27.8823 H   0  0  0  0  0  0  0  0  0  0  0  0
  1  2  2  0
  2  3  1  0
  3  4  1  0
  4  5  1  0
  5  6  1  0
  6  7  2  0
  7  8  1  0
  8  9  2  0
  9 10  1  0
 10 11  2  0
 11 12  1  0
 12 13  1  0
  2 14  1  0
 14 15  1  0
 14 16  1  0
 16 17  1  0
 17 18  2  0
 18 19  1  0
 19 20  1  0
 20 21  2  0
 13  5  2  0
 21 17  1  0
 12  8  1  0
  3 22  1  0
  4 23  1  0
  4 24  1  0
  6 25  1  0
 10 26  1  0
 11 27  1  0
 13 28  1  0
 14 29  1  0
 15 30  1  0
 16 31  1  0
 16 32  1  0
 18 33  1  0
 19 34  1  0
 20 35  1  0
M  END
>  <Energy>  (1152) 
110.4209513958657

>  <compound_id>  (1152) 
47265

>  <target_id>  (1152) 
1

>  <reference_id>  (1152) 
107

>  <inspiration_ids>  (1152) 
[107, 35]

>  <energy_score>  (1152) 
32.532491307052

>  <distance_score>  (1152) 
2.4142788455877646

>  <path>  (1152) 
/opt/xchem-fragalysis-2/maxwin/BulkDock/SCRATCH/511021/C47265-P107/C47265-P107.minimised.mol

>  <scratch_subdir>  (1152) 
/opt/xchem-fragalysis-2/maxwin/BulkDock/SCRATCH/511021/C47265-P107

>  <fragmenstein_runtime>  (1152) 
6.400963068008423

>  <fragmenstein_outcome>  (1152) 
too moved

>  <fragmenstein_mode>  (1152) 
expansion

>  <fragmenstein_error>  (1152) 


$$$$
C47265-P35
     RDKit          3D

 35 37  0  0  0  0  0  0  0  0999 V2000
   -9.0390  -21.7364   33.6815 O   0  0  0  0  0  0  0  0  0  0  0  0
  -10.0350  -22.2812   33.4405 C   0  0  0  0  0  0  0  0  0  0  0  0
  -10.3054  -23.7466   33.0924 N   0  0  0  0  0  0  0  0  0  0  0  0
   -9.4166  -24.8123   32.8780 C   0  0  0  0  0  0  0  0  0  0  0  0
   -9.9875  -25.7934   31.9925 C   0  0  0  0  0  0  0  0  0  0  0  0
  -10.6755  -26.9048   32.6518 C   0  0  0  0  0  0  0  0  0  0  0  0
  -11.2519  -27.9037   32.0732 N   0  0  0  0  0  0  0  0  0  0  0  0
  -11.1710  -27.8989   30.7205 C   0  0  0  0  0  0  0  0  0  0  0  0
  -11.7558  -28.7044   29.8711 N   0  0  0  0  0  0  0  0  0  0  0  0
  -11.3304  -28.3097   28.6380 C   0  0  0  0  0  0  0  0  0  0  0  0
  -10.4687  -27.2495   28.7137 C   0  0  0  0  0  0  0  0  0  0  0  0
  -10.4231  -26.9493   30.0383 N   0  0  0  0  0  0  0  0  0  0  0  0
   -9.8275  -25.8901   30.6715 C   0  0  0  0  0  0  0  0  0  0  0  0
  -11.3365  -21.5453   33.3220 C   0  0  0  0  0  0  0  0  0  0  0  0
  -12.2711  -21.9648   34.2801 O   0  0  0  0  0  0  0  0  0  0  0  0
  -11.8708  -21.5524   31.8977 C   0  0  0  0  0  0  0  0  0  0  0  0
  -12.0579  -22.7189   30.9926 C   0  0  0  0  0  0  0  0  0  0  0  0
  -11.9074  -22.7705   29.6179 C   0  0  0  0  0  0  0  0  0  0  0  0
  -12.4349  -23.9726   29.2508 N   0  0  0  0  0  0  0  0  0  0  0  0
  -12.8730  -24.5846   30.3881 C   0  0  0  0  0  0  0  0  0  0  0  0
  -12.6124  -23.8698   31.4549 N   0  0  0  0  0  0  0  0  0  0  0  0
  -11.2995  -23.8652   32.8559 H   0  0  0  0  0  0  0  0  0  0  0  0
   -9.1687  -25.2522   33.8463 H   0  0  0  0  0  0  0  0  0  0  0  0
   -8.5530  -24.3983   32.3623 H   0  0  0  0  0  0  0  0  0  0  0  0
  -10.6539  -26.8942   33.7474 H   0  0  0  0  0  0  0  0  0  0  0  0
  -11.6688  -28.8209   27.7480 H   0  0  0  0  0  0  0  0  0  0  0  0
   -9.9343  -26.6912   27.9639 H   0  0  0  0  0  0  0  0  0  0  0  0
   -9.2808  -25.1780   30.0736 H   0  0  0  0  0  0  0  0  0  0  0  0
  -11.1267  -20.4969   33.5745 H   0  0  0  0  0  0  0  0  0  0  0  0
  -11.8268  -21.9764   35.1444 H   0  0  0  0  0  0  0  0  0  0  0  0
  -12.8809  -21.1677   31.9961 H   0  0  0  0  0  0  0  0  0  0  0  0
  -11.2075  -20.8941   31.3401 H   0  0  0  0  0  0  0  0  0  0  0  0
  -11.5423  -22.0546   28.8937 H   0  0  0  0  0  0  0  0  0  0  0  0
  -12.5260  -24.3381   28.3126 H   0  0  0  0  0  0  0  0  0  0  0  0
  -13.3577  -25.5538   30.3861 H   0  0  0  0  0  0  0  0  0  0  0  0
  1  2  2  0
  2  3  1  0
  3  4  1  0
  4  5  1  0
  5  6  1  0
  6  7  2  0
  7  8  1  0
  8  9  2  0
  9 10  1  0
 10 11  2  0
 11 12  1  0
 12 13  1  0
  2 14  1  0
 14 15  1  0
 14 16  1  0
 16 17  1  0
 17 18  2  0
 18 19  1  0
 19 20  1  0
 20 21  2  0
 13  5  2  0
 21 17  1  0
 12  8  1  0
  3 22  1  0
  4 23  1  0
  4 24  1  0
  6 25  1  0
 10 26  1  0
 11 27  1  0
 13 28  1  0
 14 29  1  0
 15 30  1  0
 16 31  1  0
 16 32  1  0
 18 33  1  0
 19 34  1  0
 20 35  1  0
M  END
>  <Energy>  (1153) 
54.931566678962199

>  <compound_id>  (1153) 
47265

>  <target_id>  (1153) 
1

>  <reference_id>  (1153) 
35

>  <inspiration_ids>  (1153) 
[107, 35]

>  <energy_score>  (1153) 
-22.956893409851233

>  <distance_score>  (1153) 
2.479413399187515

>  <path>  (1153) 
/opt/xchem-fragalysis-2/maxwin/BulkDock/SCRATCH/511021/C47265-P35/C47265-P35.minimised.mol

>  <scratch_subdir>  (1153) 
/opt/xchem-fragalysis-2/maxwin/BulkDock/SCRATCH/511021/C47265-P35

>  <fragmenstein_runtime>  (1153) 
7.051849603652954

>  <fragmenstein_outcome>  (1153) 
too moved

>  <fragmenstein_mode>  (1153) 
expansion

>  <fragmenstein_error>  (1153) 


$$$$
C8706-P107
     RDKit          3D

 37 39  0  0  0  0  0  0  0  0999 V2000
  -15.3341  -25.7844   24.8873 C   0  0  0  0  0  0  0  0  0  0  0  0
  -14.0079  -25.8994   25.4054 O   0  0  0  0  0  0  0  0  0  0  0  0
  -13.9596  -26.2856   26.7147 C   0  0  0  0  0  0  0  0  0  0  0  0
  -14.9296  -26.6735   27.3586 O   0  0  0  0  0  0  0  0  0  0  0  0
  -12.5693  -26.0681   27.2972 C   0  0  0  0  0  0  0  0  0  0  0  0
  -12.0227  -27.2597   28.0923 C   0  0  0  0  0  0  0  0  0  0  0  0
  -11.1735  -26.8942   29.2767 C   0  0  0  0  0  0  0  0  0  0  0  0
  -10.0227  -26.1422   29.3329 C   0  0  0  0  0  0  0  0  0  0  0  0
   -9.7637  -25.9840   30.6643 N   0  0  0  0  0  0  0  0  0  0  0  0
  -10.7317  -26.6420   31.3482 C   0  0  0  0  0  0  0  0  0  0  0  0
  -11.5687  -27.2409   30.5406 N   0  0  0  0  0  0  0  0  0  0  0  0
  -12.6916  -24.9333   28.1622 N   0  0  0  0  0  0  0  0  0  0  0  0
  -12.1516  -23.5287   28.0227 C   0  0  0  0  0  0  0  0  0  0  0  0
  -11.5826  -23.0281   27.1525 O   0  0  0  0  0  0  0  0  0  0  0  0
  -12.3996  -22.8449   29.3450 C   0  0  0  0  0  0  0  0  0  0  0  0
  -11.3055  -21.9978   29.8258 C   0  0  0  0  0  0  0  0  0  0  0  0
  -11.2489  -21.8870   31.1609 C   0  0  0  0  0  0  0  0  0  0  0  0
  -12.3333  -22.2917   31.9028 N   0  0  0  0  0  0  0  0  0  0  0  0
  -12.5954  -22.1820   33.2301 C   0  0  0  0  0  0  0  0  0  0  0  0
  -13.9619  -22.2455   33.3097 C   0  0  0  0  0  0  0  0  0  0  0  0
  -14.5056  -22.4179   32.0743 N   0  0  0  0  0  0  0  0  0  0  0  0
  -13.4985  -22.6929   31.2810 C   0  0  0  0  0  0  0  0  0  0  0  0
  -13.4691  -23.1545   30.0017 N   0  0  0  0  0  0  0  0  0  0  0  0
  -15.8557  -26.7450   24.9318 H   0  0  0  0  0  0  0  0  0  0  0  0
  -15.2633  -25.4773   23.8404 H   0  0  0  0  0  0  0  0  0  0  0  0
  -15.8912  -25.0183   25.4352 H   0  0  0  0  0  0  0  0  0  0  0  0
  -11.8691  -25.8041   26.4959 H   0  0  0  0  0  0  0  0  0  0  0  0
  -11.4170  -27.8573   27.4167 H   0  0  0  0  0  0  0  0  0  0  0  0
  -12.8355  -27.9112   28.4329 H   0  0  0  0  0  0  0  0  0  0  0  0
   -9.4133  -25.6883   28.5665 H   0  0  0  0  0  0  0  0  0  0  0  0
   -8.9781  -25.5136   31.0915 H   0  0  0  0  0  0  0  0  0  0  0  0
  -10.7585  -26.6550   32.4246 H   0  0  0  0  0  0  0  0  0  0  0  0
  -13.2193  -25.0114   29.0414 H   0  0  0  0  0  0  0  0  0  0  0  0
  -10.6080  -21.6054   29.1058 H   0  0  0  0  0  0  0  0  0  0  0  0
  -10.4755  -21.3611   31.6987 H   0  0  0  0  0  0  0  0  0  0  0  0
  -11.8528  -21.9959   33.9808 H   0  0  0  0  0  0  0  0  0  0  0  0
  -14.5940  -22.1505   34.1809 H   0  0  0  0  0  0  0  0  0  0  0  0
  1  2  1  0
  2  3  1  0
  3  4  2  0
  3  5  1  0
  5  6  1  0
  6  7  1  0
  7  8  2  0
  8  9  1  0
  9 10  1  0
 10 11  2  0
  5 12  1  0
 12 13  1  0
 13 14  2  0
 13 15  1  0
 15 16  1  0
 16 17  2  0
 17 18  1  0
 18 19  1  0
 19 20  2  0
 20 21  1  0
 21 22  2  0
 22 23  1  0
 11  7  1  0
 23 15  2  0
 22 18  1  0
  1 24  1  0
  1 25  1  0
  1 26  1  0
  5 27  1  0
  6 28  1  0
  6 29  1  0
  8 30  1  0
  9 31  1  0
 10 32  1  0
 12 33  1  0
 16 34  1  0
 17 35  1  0
 19 36  1  0
 20 37  1  0
M  END
>  <Energy>  (1154) 
101.32839057845386

>  <compound_id>  (1154) 
8706

>  <target_id>  (1154) 
1

>  <reference_id>  (1154) 
107

>  <inspiration_ids>  (1154) 
[107, 35]

>  <energy_score>  (1154) 
-7.49998854080556

>  <distance_score>  (1154) 
2.4280650652288998

>  <path>  (1154) 
/opt/xchem-fragalysis-2/maxwin/BulkDock/SCRATCH/511021/C8706-P107/C8706-P107.minimised.mol

>  <scratch_subdir>  (1154) 
/opt/xchem-fragalysis-2/maxwin/BulkDock/SCRATCH/511021/C8706-P107

>  <fragmenstein_runtime>  (1154) 
3.520815372467041

>  <fragmenstein_outcome>  (1154) 
too moved

>  <fragmenstein_mode>  (1154) 
expansion

>  <fragmenstein_error>  (1154) 


$$$$
C8706-P35
     RDKit          3D

 37 39  0  0  0  0  0  0  0  0999 V2000
  -14.4627  -30.4496   27.2434 C   0  0  0  0  0  0  0  0  0  0  0  0
  -13.2896  -29.7707   27.7014 O   0  0  0  0  0  0  0  0  0  0  0  0
  -13.5577  -28.6890   28.4932 C   0  0  0  0  0  0  0  0  0  0  0  0
  -14.6828  -28.3298   28.8238 O   0  0  0  0  0  0  0  0  0  0  0  0
  -12.2558  -28.0625   28.9830 C   0  0  0  0  0  0  0  0  0  0  0  0
  -11.8655  -28.7771   30.2890 C   0  0  0  0  0  0  0  0  0  0  0  0
  -10.8078  -28.0191   31.0124 C   0  0  0  0  0  0  0  0  0  0  0  0
   -9.4488  -28.1378   30.9906 C   0  0  0  0  0  0  0  0  0  0  0  0
   -8.9783  -27.1049   31.7548 N   0  0  0  0  0  0  0  0  0  0  0  0
  -10.0486  -26.3973   32.2020 C   0  0  0  0  0  0  0  0  0  0  0  0
  -11.1677  -26.9353   31.7784 N   0  0  0  0  0  0  0  0  0  0  0  0
  -12.4628  -26.6708   29.3128 N   0  0  0  0  0  0  0  0  0  0  0  0
  -12.6399  -25.4505   28.4081 C   0  0  0  0  0  0  0  0  0  0  0  0
  -12.7246  -25.3762   27.2553 O   0  0  0  0  0  0  0  0  0  0  0  0
  -12.7940  -24.2831   29.3980 C   0  0  0  0  0  0  0  0  0  0  0  0
  -13.9365  -24.5151   30.3306 C   0  0  0  0  0  0  0  0  0  0  0  0
  -13.8346  -23.8838   31.5009 C   0  0  0  0  0  0  0  0  0  0  0  0
  -12.8114  -22.9842   31.6878 N   0  0  0  0  0  0  0  0  0  0  0  0
  -12.4897  -22.2525   32.7939 C   0  0  0  0  0  0  0  0  0  0  0  0
  -11.4288  -21.4784   32.4108 C   0  0  0  0  0  0  0  0  0  0  0  0
  -11.1482  -21.6661   31.0811 N   0  0  0  0  0  0  0  0  0  0  0  0
  -11.9224  -22.6495   30.6709 C   0  0  0  0  0  0  0  0  0  0  0  0
  -11.8840  -23.3597   29.4971 N   0  0  0  0  0  0  0  0  0  0  0  0
  -15.0263  -30.8507   28.0916 H   0  0  0  0  0  0  0  0  0  0  0  0
  -14.1460  -31.2861   26.6143 H   0  0  0  0  0  0  0  0  0  0  0  0
  -15.0866  -29.7789   26.6444 H   0  0  0  0  0  0  0  0  0  0  0  0
  -11.4874  -28.1103   28.2052 H   0  0  0  0  0  0  0  0  0  0  0  0
  -11.5715  -29.8081   30.1164 H   0  0  0  0  0  0  0  0  0  0  0  0
  -12.7399  -28.8407   30.9537 H   0  0  0  0  0  0  0  0  0  0  0  0
   -8.7858  -28.8497   30.5347 H   0  0  0  0  0  0  0  0  0  0  0  0
   -8.0033  -26.9260   31.9771 H   0  0  0  0  0  0  0  0  0  0  0  0
   -9.9545  -25.5223   32.8324 H   0  0  0  0  0  0  0  0  0  0  0  0
  -12.3415  -26.3625   30.2838 H   0  0  0  0  0  0  0  0  0  0  0  0
  -14.7095  -25.2343   30.0972 H   0  0  0  0  0  0  0  0  0  0  0  0
  -14.5367  -24.0202   32.3133 H   0  0  0  0  0  0  0  0  0  0  0  0
  -13.0335  -22.3280   33.7240 H   0  0  0  0  0  0  0  0  0  0  0  0
  -10.8775  -20.7596   33.0047 H   0  0  0  0  0  0  0  0  0  0  0  0
  1  2  1  0
  2  3  1  0
  3  4  2  0
  3  5  1  0
  5  6  1  0
  6  7  1  0
  7  8  2  0
  8  9  1  0
  9 10  1  0
 10 11  2  0
  5 12  1  0
 12 13  1  0
 13 14  2  0
 13 15  1  0
 15 16  1  0
 16 17  2  0
 17 18  1  0
 18 19  1  0
 19 20  2  0
 20 21  1  0
 21 22  2  0
 22 23  1  0
 11  7  1  0
 23 15  2  0
 22 18  1  0
  1 24  1  0
  1 25  1  0
  1 26  1  0
  5 27  1  0
  6 28  1  0
  6 29  1  0
  8 30  1  0
  9 31  1  0
 10 32  1  0
 12 33  1  0
 16 34  1  0
 17 35  1  0
 19 36  1  0
 20 37  1  0
M  END
>  <Energy>  (1155) 
93.662480879920466

>  <compound_id>  (1155) 
8706

>  <target_id>  (1155) 
1

>  <reference_id>  (1155) 
35

>  <inspiration_ids>  (1155) 
[107, 35]

>  <energy_score>  (1155) 
-15.16589823933856

>  <distance_score>  (1155) 
2.2141128371368737

>  <path>  (1155) 
/opt/xchem-fragalysis-2/maxwin/BulkDock/SCRATCH/511021/C8706-P35/C8706-P35.minimised.mol

>  <scratch_subdir>  (1155) 
/opt/xchem-fragalysis-2/maxwin/BulkDock/SCRATCH/511021/C8706-P35

>  <fragmenstein_runtime>  (1155) 
2.6470787525177

>  <fragmenstein_outcome>  (1155) 
too moved

>  <fragmenstein_mode>  (1155) 
expansion

>  <fragmenstein_error>  (1155) 


$$$$
C8696-P107
     RDKit          3D

 32 34  0  0  0  0  0  0  0  0999 V2000
  -10.6151  -23.2974   28.1259 O   0  0  0  0  0  0  0  0  0  0  0  0
  -11.5070  -23.6514   28.7707 C   0  0  0  0  0  0  0  0  0  0  0  0
  -12.5647  -24.7127   28.4968 N   0  0  0  0  0  0  0  0  0  0  0  0
  -12.6963  -25.6263   27.4196 C   0  0  0  0  0  0  0  0  0  0  0  0
  -11.8481  -26.8848   27.7032 C   0  0  0  0  0  0  0  0  0  0  0  0
  -10.9372  -27.0618   26.6120 O   0  0  0  0  0  0  0  0  0  0  0  0
  -11.1756  -26.9778   29.0382 C   0  0  0  0  0  0  0  0  0  0  0  0
   -9.9207  -26.5637   29.4152 C   0  0  0  0  0  0  0  0  0  0  0  0
   -9.7580  -26.9862   30.7019 N   0  0  0  0  0  0  0  0  0  0  0  0
  -10.9275  -27.5608   31.0724 C   0  0  0  0  0  0  0  0  0  0  0  0
  -11.8097  -27.5694   30.1036 N   0  0  0  0  0  0  0  0  0  0  0  0
  -11.7878  -23.1807   30.1703 C   0  0  0  0  0  0  0  0  0  0  0  0
  -11.0990  -24.0088   31.1994 C   0  0  0  0  0  0  0  0  0  0  0  0
  -11.7185  -24.0606   32.3753 C   0  0  0  0  0  0  0  0  0  0  0  0
  -12.8075  -23.2402   32.5590 N   0  0  0  0  0  0  0  0  0  0  0  0
  -13.6404  -23.1326   33.6209 C   0  0  0  0  0  0  0  0  0  0  0  0
  -14.4475  -22.0619   33.3444 C   0  0  0  0  0  0  0  0  0  0  0  0
  -14.1737  -21.5464   32.1123 N   0  0  0  0  0  0  0  0  0  0  0  0
  -13.2320  -22.3160   31.6106 C   0  0  0  0  0  0  0  0  0  0  0  0
  -12.7329  -22.3213   30.3451 N   0  0  0  0  0  0  0  0  0  0  0  0
  -13.1561  -24.8244   29.3209 H   0  0  0  0  0  0  0  0  0  0  0  0
  -13.7554  -25.8865   27.3293 H   0  0  0  0  0  0  0  0  0  0  0  0
  -12.3799  -25.1291   26.4967 H   0  0  0  0  0  0  0  0  0  0  0  0
  -12.5368  -27.7319   27.6985 H   0  0  0  0  0  0  0  0  0  0  0  0
  -11.4660  -27.5101   25.9207 H   0  0  0  0  0  0  0  0  0  0  0  0
   -9.1702  -26.0417   28.8402 H   0  0  0  0  0  0  0  0  0  0  0  0
   -8.9442  -26.9306   31.3070 H   0  0  0  0  0  0  0  0  0  0  0  0
  -11.0387  -27.9781   32.0529 H   0  0  0  0  0  0  0  0  0  0  0  0
  -10.2090  -24.5573   30.9654 H   0  0  0  0  0  0  0  0  0  0  0  0
  -11.4027  -24.6750   33.2073 H   0  0  0  0  0  0  0  0  0  0  0  0
  -13.6074  -23.8091   34.4530 H   0  0  0  0  0  0  0  0  0  0  0  0
  -15.2378  -21.6574   33.9618 H   0  0  0  0  0  0  0  0  0  0  0  0
  1  2  2  0
  2  3  1  0
  3  4  1  0
  4  5  1  0
  5  6  1  0
  5  7  1  0
  7  8  2  0
  8  9  1  0
  9 10  1  0
 10 11  2  0
  2 12  1  0
 12 13  1  0
 13 14  2  0
 14 15  1  0
 15 16  1  0
 16 17  2  0
 17 18  1  0
 18 19  2  0
 19 20  1  0
 11  7  1  0
 20 12  2  0
 19 15  1  0
  3 21  1  0
  4 22  1  0
  4 23  1  0
  5 24  1  0
  6 25  1  0
  8 26  1  0
  9 27  1  0
 10 28  1  0
 13 29  1  0
 14 30  1  0
 16 31  1  0
 17 32  1  0
M  END
>  <Energy>  (1156) 
122.704688376082

>  <compound_id>  (1156) 
8696

>  <target_id>  (1156) 
1

>  <reference_id>  (1156) 
107

>  <inspiration_ids>  (1156) 
[107, 35]

>  <energy_score>  (1156) 
10.336442667201197

>  <distance_score>  (1156) 
2.3094851809855816

>  <path>  (1156) 
/opt/xchem-fragalysis-2/maxwin/BulkDock/SCRATCH/511021/C8696-P107/C8696-P107.minimised.mol

>  <scratch_subdir>  (1156) 
/opt/xchem-fragalysis-2/maxwin/BulkDock/SCRATCH/511021/C8696-P107

>  <fragmenstein_runtime>  (1156) 
4.361907005310059

>  <fragmenstein_outcome>  (1156) 
too moved

>  <fragmenstein_mode>  (1156) 
expansion

>  <fragmenstein_error>  (1156) 


$$$$
C8696-P35
     RDKit          3D

 32 34  0  0  0  0  0  0  0  0999 V2000
  -12.3459  -24.7599   26.7128 O   0  0  0  0  0  0  0  0  0  0  0  0
  -12.0009  -24.7597   27.8148 C   0  0  0  0  0  0  0  0  0  0  0  0
  -11.1001  -25.7262   28.5662 N   0  0  0  0  0  0  0  0  0  0  0  0
  -10.5033  -26.9573   28.1486 C   0  0  0  0  0  0  0  0  0  0  0  0
  -10.7331  -27.9309   29.3242 C   0  0  0  0  0  0  0  0  0  0  0  0
  -12.1378  -28.2007   29.4568 O   0  0  0  0  0  0  0  0  0  0  0  0
  -10.1875  -27.3871   30.6095 C   0  0  0  0  0  0  0  0  0  0  0  0
   -9.1264  -27.8093   31.3618 C   0  0  0  0  0  0  0  0  0  0  0  0
   -8.9789  -26.8732   32.3506 N   0  0  0  0  0  0  0  0  0  0  0  0
   -9.9835  -25.9646   32.2077 C   0  0  0  0  0  0  0  0  0  0  0  0
  -10.7439  -26.2524   31.1748 N   0  0  0  0  0  0  0  0  0  0  0  0
  -12.4364  -23.8124   28.9301 C   0  0  0  0  0  0  0  0  0  0  0  0
  -13.5354  -24.4443   29.7256 C   0  0  0  0  0  0  0  0  0  0  0  0
  -13.6099  -24.0344   30.9940 C   0  0  0  0  0  0  0  0  0  0  0  0
  -12.7720  -23.0262   31.4203 N   0  0  0  0  0  0  0  0  0  0  0  0
  -12.6670  -22.4419   32.6496 C   0  0  0  0  0  0  0  0  0  0  0  0
  -11.6380  -21.5466   32.5377 C   0  0  0  0  0  0  0  0  0  0  0  0
  -11.1881  -21.4921   31.2443 N   0  0  0  0  0  0  0  0  0  0  0  0
  -11.8689  -22.3941   30.5698 C   0  0  0  0  0  0  0  0  0  0  0  0
  -11.6961  -22.8050   29.2751 N   0  0  0  0  0  0  0  0  0  0  0  0
  -10.9382  -25.3745   29.5169 H   0  0  0  0  0  0  0  0  0  0  0  0
   -9.4378  -26.7956   27.9991 H   0  0  0  0  0  0  0  0  0  0  0  0
  -10.9816  -27.2964   27.2261 H   0  0  0  0  0  0  0  0  0  0  0  0
  -10.2428  -28.8619   29.1041 H   0  0  0  0  0  0  0  0  0  0  0  0
  -12.4650  -27.4401   29.9735 H   0  0  0  0  0  0  0  0  0  0  0  0
   -8.4449  -28.6449   31.2736 H   0  0  0  0  0  0  0  0  0  0  0  0
   -8.2462  -26.8823   33.0524 H   0  0  0  0  0  0  0  0  0  0  0  0
  -10.1076  -25.1223   32.8762 H   0  0  0  0  0  0  0  0  0  0  0  0
  -14.1339  -25.2396   29.3034 H   0  0  0  0  0  0  0  0  0  0  0  0
  -14.3061  -24.4449   31.7140 H   0  0  0  0  0  0  0  0  0  0  0  0
  -13.3183  -22.6964   33.4702 H   0  0  0  0  0  0  0  0  0  0  0  0
  -11.2261  -20.8984   33.3015 H   0  0  0  0  0  0  0  0  0  0  0  0
  1  2  2  0
  2  3  1  0
  3  4  1  0
  4  5  1  0
  5  6  1  0
  5  7  1  0
  7  8  2  0
  8  9  1  0
  9 10  1  0
 10 11  2  0
  2 12  1  0
 12 13  1  0
 13 14  2  0
 14 15  1  0
 15 16  1  0
 16 17  2  0
 17 18  1  0
 18 19  2  0
 19 20  1  0
 11  7  1  0
 20 12  2  0
 19 15  1  0
  3 21  1  0
  4 22  1  0
  4 23  1  0
  5 24  1  0
  6 25  1  0
  8 26  1  0
  9 27  1  0
 10 28  1  0
 13 29  1  0
 14 30  1  0
 16 31  1  0
 17 32  1  0
M  END
>  <Energy>  (1157) 
106.46855840932481

>  <compound_id>  (1157) 
8696

>  <target_id>  (1157) 
1

>  <reference_id>  (1157) 
35

>  <inspiration_ids>  (1157) 
[107, 35]

>  <energy_score>  (1157) 
-5.8996872995555805

>  <distance_score>  (1157) 
1.6669974490652315

>  <path>  (1157) 
/opt/xchem-fragalysis-2/maxwin/BulkDock/SCRATCH/511021/C8696-P35/C8696-P35.minimised.mol

>  <scratch_subdir>  (1157) 
/opt/xchem-fragalysis-2/maxwin/BulkDock/SCRATCH/511021/C8696-P35

>  <fragmenstein_runtime>  (1157) 
3.8531126976013184

>  <fragmenstein_outcome>  (1157) 
too moved

>  <fragmenstein_mode>  (1157) 
expansion

>  <fragmenstein_error>  (1157) 


$$$$
C19444-P107
     RDKit          3D

 35 38  0  0  0  0  0  0  0  0999 V2000
  -14.4574  -23.7752   33.9939 O   0  0  0  0  0  0  0  0  0  0  0  0
  -13.8966  -22.9035   33.4586 C   0  0  0  0  0  0  0  0  0  0  0  0
  -14.0924  -21.3776   33.5599 N   0  0  0  0  0  0  0  0  0  0  0  0
  -15.0438  -20.6355   34.2413 C   0  0  0  0  0  0  0  0  0  0  0  0
  -16.2240  -21.2636   34.6144 C   0  0  0  0  0  0  0  0  0  0  0  0
  -17.1756  -20.5764   35.3599 C   0  0  0  0  0  0  0  0  0  0  0  0
  -16.9106  -19.2782   35.7889 C   0  0  0  0  0  0  0  0  0  0  0  0
  -15.6964  -18.6449   35.4742 C   0  0  0  0  0  0  0  0  0  0  0  0
  -15.4148  -17.3340   36.0613 C   0  0  0  0  0  0  0  0  0  0  0  0
  -15.9083  -16.7339   37.2091 C   0  0  0  0  0  0  0  0  0  0  0  0
  -15.4888  -15.4377   37.3281 N   0  0  0  0  0  0  0  0  0  0  0  0
  -14.7480  -15.2288   36.2663 C   0  0  0  0  0  0  0  0  0  0  0  0
  -14.5925  -16.3667   35.5257 N   0  0  0  0  0  0  0  0  0  0  0  0
  -14.7800  -19.3196   34.6498 C   0  0  0  0  0  0  0  0  0  0  0  0
  -12.8813  -23.1306   32.4305 C   0  0  0  0  0  0  0  0  0  0  0  0
  -12.1489  -24.2753   32.2200 C   0  0  0  0  0  0  0  0  0  0  0  0
  -11.7291  -24.1818   30.9275 N   0  0  0  0  0  0  0  0  0  0  0  0
  -11.1490  -25.1438   30.1148 C   0  0  0  0  0  0  0  0  0  0  0  0
  -10.9295  -24.8577   28.8245 C   0  0  0  0  0  0  0  0  0  0  0  0
  -11.3299  -23.4807   28.4077 C   0  0  0  0  0  0  0  0  0  0  0  0
  -11.8272  -22.5528   29.1671 N   0  0  0  0  0  0  0  0  0  0  0  0
  -12.0582  -22.9087   30.4649 C   0  0  0  0  0  0  0  0  0  0  0  0
  -12.6411  -22.2117   31.4172 N   0  0  0  0  0  0  0  0  0  0  0  0
  -13.4889  -20.9159   32.8954 H   0  0  0  0  0  0  0  0  0  0  0  0
  -16.4374  -22.2877   34.3122 H   0  0  0  0  0  0  0  0  0  0  0  0
  -18.1112  -21.0630   35.6226 H   0  0  0  0  0  0  0  0  0  0  0  0
  -17.6646  -18.7716   36.3871 H   0  0  0  0  0  0  0  0  0  0  0  0
  -16.5742  -17.1675   37.9442 H   0  0  0  0  0  0  0  0  0  0  0  0
  -14.3000  -14.2867   35.9800 H   0  0  0  0  0  0  0  0  0  0  0  0
  -14.0669  -16.4274   34.6646 H   0  0  0  0  0  0  0  0  0  0  0  0
  -13.8059  -18.8859   34.4417 H   0  0  0  0  0  0  0  0  0  0  0  0
  -12.0708  -25.1810   32.7958 H   0  0  0  0  0  0  0  0  0  0  0  0
  -10.9195  -26.1019   30.5650 H   0  0  0  0  0  0  0  0  0  0  0  0
  -10.4923  -25.5370   28.1082 H   0  0  0  0  0  0  0  0  0  0  0  0
  -11.1616  -23.2534   27.3427 H   0  0  0  0  0  0  0  0  0  0  0  0
  1  2  2  0
  2  3  1  0
  3  4  1  0
  4  5  2  0
  5  6  1  0
  6  7  2  0
  7  8  1  0
  8  9  1  0
  9 10  2  0
 10 11  1  0
 11 12  2  0
 12 13  1  0
  8 14  2  0
  2 15  1  0
 15 16  2  0
 16 17  1  0
 17 18  1  0
 18 19  2  0
 19 20  1  0
 20 21  2  0
 21 22  1  0
 22 23  2  0
 14  4  1  0
 23 15  1  0
 13  9  1  0
 22 17  1  0
  3 24  1  0
  5 25  1  0
  6 26  1  0
  7 27  1  0
 10 28  1  0
 12 29  1  0
 13 30  1  0
 14 31  1  0
 16 32  1  0
 18 33  1  0
 19 34  1  0
 20 35  1  0
M  END
>  <Energy>  (1158) 
68.279053635217807

>  <compound_id>  (1158) 
19444

>  <target_id>  (1158) 
1

>  <reference_id>  (1158) 
107

>  <inspiration_ids>  (1158) 
[107, 35]

>  <energy_score>  (1158) 
-8.787412837533154

>  <distance_score>  (1158) 
2.3657389080955618

>  <path>  (1158) 
/opt/xchem-fragalysis-2/maxwin/BulkDock/SCRATCH/511021/C19444-P107/C19444-P107.minimised.mol

>  <scratch_subdir>  (1158) 
/opt/xchem-fragalysis-2/maxwin/BulkDock/SCRATCH/511021/C19444-P107

>  <fragmenstein_runtime>  (1158) 
4.646360874176025

>  <fragmenstein_outcome>  (1158) 
too moved

>  <fragmenstein_mode>  (1158) 
expansion

>  <fragmenstein_error>  (1158) 


$$$$
C19444-P35
     RDKit          3D

 35 38  0  0  0  0  0  0  0  0999 V2000
  -12.6375  -21.1332   34.3899 O   0  0  0  0  0  0  0  0  0  0  0  0
  -13.1341  -21.5540   33.4198 C   0  0  0  0  0  0  0  0  0  0  0  0
  -14.5641  -21.3659   32.8633 N   0  0  0  0  0  0  0  0  0  0  0  0
  -15.6651  -20.7257   33.4084 C   0  0  0  0  0  0  0  0  0  0  0  0
  -16.8829  -21.0703   32.8489 C   0  0  0  0  0  0  0  0  0  0  0  0
  -18.0602  -20.4707   33.2826 C   0  0  0  0  0  0  0  0  0  0  0  0
  -18.0145  -19.5158   34.2919 C   0  0  0  0  0  0  0  0  0  0  0  0
  -16.7933  -19.1445   34.8730 C   0  0  0  0  0  0  0  0  0  0  0  0
  -16.7904  -18.1432   35.9420 C   0  0  0  0  0  0  0  0  0  0  0  0
  -17.8187  -17.5786   36.6810 C   0  0  0  0  0  0  0  0  0  0  0  0
  -17.3516  -16.6873   37.6123 N   0  0  0  0  0  0  0  0  0  0  0  0
  -16.0498  -16.7139   37.4718 C   0  0  0  0  0  0  0  0  0  0  0  0
  -15.6687  -17.5264   36.4440 N   0  0  0  0  0  0  0  0  0  0  0  0
  -15.6127  -19.7567   34.4065 C   0  0  0  0  0  0  0  0  0  0  0  0
  -12.4407  -22.3608   32.4114 C   0  0  0  0  0  0  0  0  0  0  0  0
  -11.4376  -23.2956   32.5508 C   0  0  0  0  0  0  0  0  0  0  0  0
  -11.3274  -23.8847   31.3158 N   0  0  0  0  0  0  0  0  0  0  0  0
  -10.5748  -24.9739   30.8977 C   0  0  0  0  0  0  0  0  0  0  0  0
  -10.5978  -25.3246   29.6030 C   0  0  0  0  0  0  0  0  0  0  0  0
  -11.4343  -24.4565   28.7235 C   0  0  0  0  0  0  0  0  0  0  0  0
  -12.1576  -23.4494   29.1007 N   0  0  0  0  0  0  0  0  0  0  0  0
  -12.1373  -23.1739   30.4343 C   0  0  0  0  0  0  0  0  0  0  0  0
  -12.8440  -22.2870   31.0876 N   0  0  0  0  0  0  0  0  0  0  0  0
  -14.6851  -21.9457   32.0309 H   0  0  0  0  0  0  0  0  0  0  0  0
  -16.9456  -21.8177   32.0615 H   0  0  0  0  0  0  0  0  0  0  0  0
  -19.0095  -20.7511   32.8347 H   0  0  0  0  0  0  0  0  0  0  0  0
  -18.9493  -19.0606   34.6091 H   0  0  0  0  0  0  0  0  0  0  0  0
  -18.8797  -17.7755   36.5951 H   0  0  0  0  0  0  0  0  0  0  0  0
  -15.3425  -16.1749   38.0832 H   0  0  0  0  0  0  0  0  0  0  0  0
  -14.7200  -17.6907   36.1411 H   0  0  0  0  0  0  0  0  0  0  0  0
  -14.6431  -19.4779   34.7972 H   0  0  0  0  0  0  0  0  0  0  0  0
  -10.8781  -23.6345   33.4101 H   0  0  0  0  0  0  0  0  0  0  0  0
   -9.9887  -25.4913   31.6466 H   0  0  0  0  0  0  0  0  0  0  0  0
  -10.0450  -26.1506   29.1788 H   0  0  0  0  0  0  0  0  0  0  0  0
  -11.4139  -24.7229   27.6534 H   0  0  0  0  0  0  0  0  0  0  0  0
  1  2  2  0
  2  3  1  0
  3  4  1  0
  4  5  2  0
  5  6  1  0
  6  7  2  0
  7  8  1  0
  8  9  1  0
  9 10  2  0
 10 11  1  0
 11 12  2  0
 12 13  1  0
  8 14  2  0
  2 15  1  0
 15 16  2  0
 16 17  1  0
 17 18  1  0
 18 19  2  0
 19 20  1  0
 20 21  2  0
 21 22  1  0
 22 23  2  0
 14  4  1  0
 23 15  1  0
 13  9  1  0
 22 17  1  0
  3 24  1  0
  5 25  1  0
  6 26  1  0
  7 27  1  0
 10 28  1  0
 12 29  1  0
 13 30  1  0
 14 31  1  0
 16 32  1  0
 18 33  1  0
 19 34  1  0
 20 35  1  0
M  END
>  <Energy>  (1159) 
62.89899065995192

>  <compound_id>  (1159) 
19444

>  <target_id>  (1159) 
1

>  <reference_id>  (1159) 
35

>  <inspiration_ids>  (1159) 
[107, 35]

>  <energy_score>  (1159) 
-14.1674758128014

>  <distance_score>  (1159) 
2.4310603050191824

>  <path>  (1159) 
/opt/xchem-fragalysis-2/maxwin/BulkDock/SCRATCH/511021/C19444-P35/C19444-P35.minimised.mol

>  <scratch_subdir>  (1159) 
/opt/xchem-fragalysis-2/maxwin/BulkDock/SCRATCH/511021/C19444-P35

>  <fragmenstein_runtime>  (1159) 
6.5606560707092285

>  <fragmenstein_outcome>  (1159) 
too moved

>  <fragmenstein_mode>  (1159) 
expansion

>  <fragmenstein_error>  (1159) 


$$$$
C47266-P107
     RDKit          3D

 31 33  0  0  0  0  0  0  0  0999 V2000
  -14.3288  -22.9478   34.1255 O   0  0  0  0  0  0  0  0  0  0  0  0
  -14.2763  -22.5134   33.0160 C   0  0  0  0  0  0  0  0  0  0  0  0
  -14.9916  -21.4519   32.4003 N   0  0  0  0  0  0  0  0  0  0  0  0
  -16.0694  -20.6294   32.8885 C   0  0  0  0  0  0  0  0  0  0  0  0
  -15.9062  -20.1467   34.3319 C   0  0  0  0  0  0  0  0  0  0  0  0
  -14.8095  -19.1633   34.5782 C   0  0  0  0  0  0  0  0  0  0  0  0
  -13.4495  -19.3625   34.6933 C   0  0  0  0  0  0  0  0  0  0  0  0
  -12.9064  -18.1301   34.9270 N   0  0  0  0  0  0  0  0  0  0  0  0
  -13.9363  -17.2372   34.9823 C   0  0  0  0  0  0  0  0  0  0  0  0
  -15.0895  -17.8200   34.7338 N   0  0  0  0  0  0  0  0  0  0  0  0
  -13.2694  -23.0306   32.0721 C   0  0  0  0  0  0  0  0  0  0  0  0
  -12.3697  -24.0507   32.3079 C   0  0  0  0  0  0  0  0  0  0  0  0
  -11.8156  -24.3248   31.0930 N   0  0  0  0  0  0  0  0  0  0  0  0
  -10.9603  -25.3510   30.7166 C   0  0  0  0  0  0  0  0  0  0  0  0
  -10.5740  -25.4414   29.4366 C   0  0  0  0  0  0  0  0  0  0  0  0
  -11.1026  -24.3709   28.5419 C   0  0  0  0  0  0  0  0  0  0  0  0
  -11.8910  -23.3968   28.8782 N   0  0  0  0  0  0  0  0  0  0  0  0
  -12.2845  -23.3742   30.1866 C   0  0  0  0  0  0  0  0  0  0  0  0
  -13.1233  -22.5489   30.7762 N   0  0  0  0  0  0  0  0  0  0  0  0
  -14.7462  -21.4174   31.4132 H   0  0  0  0  0  0  0  0  0  0  0  0
  -16.9773  -21.2382   32.8161 H   0  0  0  0  0  0  0  0  0  0  0  0
  -16.1791  -19.7874   32.1997 H   0  0  0  0  0  0  0  0  0  0  0  0
  -16.8495  -19.6675   34.6263 H   0  0  0  0  0  0  0  0  0  0  0  0
  -15.8025  -21.0080   34.9956 H   0  0  0  0  0  0  0  0  0  0  0  0
  -12.8313  -20.2446   34.6000 H   0  0  0  0  0  0  0  0  0  0  0  0
  -11.9196  -17.9026   34.9531 H   0  0  0  0  0  0  0  0  0  0  0  0
  -13.7786  -16.1820   35.1604 H   0  0  0  0  0  0  0  0  0  0  0  0
  -12.1924  -24.6460   33.1923 H   0  0  0  0  0  0  0  0  0  0  0  0
  -10.6514  -26.0508   31.4845 H   0  0  0  0  0  0  0  0  0  0  0  0
   -9.9208  -26.2067   29.0439 H   0  0  0  0  0  0  0  0  0  0  0  0
  -10.7627  -24.4345   27.4946 H   0  0  0  0  0  0  0  0  0  0  0  0
  1  2  2  0
  2  3  1  0
  3  4  1  0
  4  5  1  0
  5  6  1  0
  6  7  2  0
  7  8  1  0
  8  9  1  0
  9 10  2  0
  2 11  1  0
 11 12  2  0
 12 13  1  0
 13 14  1  0
 14 15  2  0
 15 16  1  0
 16 17  2  0
 17 18  1  0
 18 19  2  0
 10  6  1  0
 19 11  1  0
 18 13  1  0
  3 20  1  0
  4 21  1  0
  4 22  1  0
  5 23  1  0
  5 24  1  0
  7 25  1  0
  8 26  1  0
  9 27  1  0
 12 28  1  0
 14 29  1  0
 15 30  1  0
 16 31  1  0
M  END
>  <Energy>  (1160) 
34.756490352928182

>  <compound_id>  (1160) 
47266

>  <target_id>  (1160) 
1

>  <reference_id>  (1160) 
107

>  <inspiration_ids>  (1160) 
[107, 35]

>  <energy_score>  (1160) 
-21.953046360803768

>  <distance_score>  (1160) 
2.7339910292701224

>  <path>  (1160) 
/opt/xchem-fragalysis-2/maxwin/BulkDock/SCRATCH/511021/C47266-P107/C47266-P107.minimised.mol

>  <scratch_subdir>  (1160) 
/opt/xchem-fragalysis-2/maxwin/BulkDock/SCRATCH/511021/C47266-P107

>  <fragmenstein_runtime>  (1160) 
9.970598220825195

>  <fragmenstein_outcome>  (1160) 
too moved

>  <fragmenstein_mode>  (1160) 
expansion

>  <fragmenstein_error>  (1160) 


$$$$
C47266-P35
     RDKit          3D

 31 33  0  0  0  0  0  0  0  0999 V2000
  -12.6413  -21.9900   34.3667 O   0  0  0  0  0  0  0  0  0  0  0  0
  -12.0417  -21.5937   33.4587 C   0  0  0  0  0  0  0  0  0  0  0  0
  -11.0120  -20.4793   33.3678 N   0  0  0  0  0  0  0  0  0  0  0  0
  -10.5627  -19.5449   34.3547 C   0  0  0  0  0  0  0  0  0  0  0  0
  -10.0143  -20.2756   35.5627 C   0  0  0  0  0  0  0  0  0  0  0  0
   -9.5324  -19.3252   36.5969 C   0  0  0  0  0  0  0  0  0  0  0  0
   -8.4712  -18.4585   36.4998 C   0  0  0  0  0  0  0  0  0  0  0  0
   -8.4155  -17.8202   37.7036 N   0  0  0  0  0  0  0  0  0  0  0  0
   -9.4456  -18.2810   38.4662 C   0  0  0  0  0  0  0  0  0  0  0  0
  -10.1356  -19.2014   37.8317 N   0  0  0  0  0  0  0  0  0  0  0  0
  -12.1276  -22.2344   32.1469 C   0  0  0  0  0  0  0  0  0  0  0  0
  -12.7231  -23.4395   31.8639 C   0  0  0  0  0  0  0  0  0  0  0  0
  -12.3825  -23.7227   30.5806 N   0  0  0  0  0  0  0  0  0  0  0  0
  -12.5326  -24.8903   29.8525 C   0  0  0  0  0  0  0  0  0  0  0  0
  -12.1437  -24.9108   28.5709 C   0  0  0  0  0  0  0  0  0  0  0  0
  -11.6364  -23.6093   28.0492 C   0  0  0  0  0  0  0  0  0  0  0  0
  -11.4741  -22.5164   28.7284 N   0  0  0  0  0  0  0  0  0  0  0  0
  -11.8020  -22.5802   30.0483 C   0  0  0  0  0  0  0  0  0  0  0  0
  -11.5758  -21.6966   30.9971 N   0  0  0  0  0  0  0  0  0  0  0  0
  -10.6226  -20.4534   32.4274 H   0  0  0  0  0  0  0  0  0  0  0  0
  -11.4193  -18.9252   34.6400 H   0  0  0  0  0  0  0  0  0  0  0  0
   -9.7978  -18.9106   33.9029 H   0  0  0  0  0  0  0  0  0  0  0  0
  -10.7745  -20.9343   35.9916 H   0  0  0  0  0  0  0  0  0  0  0  0
   -9.1957  -20.9287   35.2540 H   0  0  0  0  0  0  0  0  0  0  0  0
   -7.7533  -18.2656   35.7152 H   0  0  0  0  0  0  0  0  0  0  0  0
   -7.6675  -17.2034   37.9952 H   0  0  0  0  0  0  0  0  0  0  0  0
   -9.6278  -17.9219   39.4695 H   0  0  0  0  0  0  0  0  0  0  0  0
  -13.3004  -24.1096   32.4731 H   0  0  0  0  0  0  0  0  0  0  0  0
  -12.9567  -25.7430   30.3673 H   0  0  0  0  0  0  0  0  0  0  0  0
  -12.2140  -25.7663   27.9164 H   0  0  0  0  0  0  0  0  0  0  0  0
  -11.3891  -23.6055   26.9746 H   0  0  0  0  0  0  0  0  0  0  0  0
  1  2  2  0
  2  3  1  0
  3  4  1  0
  4  5  1  0
  5  6  1  0
  6  7  2  0
  7  8  1  0
  8  9  1  0
  9 10  2  0
  2 11  1  0
 11 12  2  0
 12 13  1  0
 13 14  1  0
 14 15  2  0
 15 16  1  0
 16 17  2  0
 17 18  1  0
 18 19  2  0
 10  6  1  0
 19 11  1  0
 18 13  1  0
  3 20  1  0
  4 21  1  0
  4 22  1  0
  5 23  1  0
  5 24  1  0
  7 25  1  0
  8 26  1  0
  9 27  1  0
 12 28  1  0
 14 29  1  0
 15 30  1  0
 16 31  1  0
M  END
>  <Energy>  (1161) 
46.553478665602938

>  <compound_id>  (1161) 
47266

>  <target_id>  (1161) 
1

>  <reference_id>  (1161) 
35

>  <inspiration_ids>  (1161) 
[107, 35]

>  <energy_score>  (1161) 
-13.744747070177084

>  <distance_score>  (1161) 
1.7574027631118858

>  <path>  (1161) 
/opt/xchem-fragalysis-2/maxwin/BulkDock/SCRATCH/511021/C47266-P35/C47266-P35.minimised.mol

>  <scratch_subdir>  (1161) 
/opt/xchem-fragalysis-2/maxwin/BulkDock/SCRATCH/511021/C47266-P35

>  <fragmenstein_runtime>  (1161) 
3.9060769081115723

>  <fragmenstein_outcome>  (1161) 
too moved

>  <fragmenstein_mode>  (1161) 
expansion

>  <fragmenstein_error>  (1161) 


$$$$
C19445-P107
     RDKit          3D

 41 43  0  0  0  0  0  0  0  0999 V2000
  -12.6492  -23.5442   33.9965 C   0  0  0  0  0  0  0  0  0  0  0  0
  -11.7852  -23.0761   32.8899 C   0  0  0  0  0  0  0  0  0  0  0  0
  -12.7128  -22.4507   31.8855 C   0  0  0  0  0  0  0  0  0  0  0  0
  -11.9887  -22.1833   30.6204 C   0  0  0  0  0  0  0  0  0  0  0  0
  -11.5126  -20.8940   30.3307 N   0  0  0  0  0  0  0  0  0  0  0  0
  -10.7562  -20.4127   29.2595 C   0  0  0  0  0  0  0  0  0  0  0  0
  -10.2458  -21.0078   28.3533 O   0  0  0  0  0  0  0  0  0  0  0  0
  -10.5763  -18.3694   29.0420 C   0  0  0  0  0  0  0  0  0  0  0  0
   -9.1180  -18.3280   27.8377 C   0  0  0  0  0  0  0  0  0  0  0  0
   -9.2964  -17.1986   26.9087 N   0  0  0  0  0  0  0  0  0  0  0  0
  -10.4722  -16.6652   27.1857 C   0  0  0  0  0  0  0  0  0  0  0  0
  -11.4406  -17.5349   28.3896 N   0  0  0  0  0  0  0  0  0  0  0  0
  -11.0091  -24.1108   32.2792 N   0  0  0  0  0  0  0  0  0  0  0  0
  -10.4550  -25.2985   32.8126 C   0  0  0  0  0  0  0  0  0  0  0  0
  -10.4219  -25.7118   33.9328 O   0  0  0  0  0  0  0  0  0  0  0  0
   -9.9938  -25.9761   31.5698 C   0  0  0  0  0  0  0  0  0  0  0  0
  -10.6852  -27.0145   30.9644 C   0  0  0  0  0  0  0  0  0  0  0  0
  -10.8571  -26.5956   29.6644 N   0  0  0  0  0  0  0  0  0  0  0  0
  -11.7925  -26.9841   28.7167 C   0  0  0  0  0  0  0  0  0  0  0  0
  -11.9235  -26.2642   27.5929 C   0  0  0  0  0  0  0  0  0  0  0  0
  -10.9568  -25.1447   27.4341 C   0  0  0  0  0  0  0  0  0  0  0  0
  -10.0444  -24.8047   28.2866 N   0  0  0  0  0  0  0  0  0  0  0  0
  -10.0267  -25.5077   29.4524 C   0  0  0  0  0  0  0  0  0  0  0  0
   -9.4340  -25.1810   30.5749 N   0  0  0  0  0  0  0  0  0  0  0  0
  -13.5315  -22.9164   34.1510 H   0  0  0  0  0  0  0  0  0  0  0  0
  -12.9951  -24.5716   33.8572 H   0  0  0  0  0  0  0  0  0  0  0  0
  -12.0055  -23.4571   34.8575 H   0  0  0  0  0  0  0  0  0  0  0  0
  -11.0990  -22.3065   33.2036 H   0  0  0  0  0  0  0  0  0  0  0  0
  -13.1849  -21.5517   32.2939 H   0  0  0  0  0  0  0  0  0  0  0  0
  -13.5262  -23.1539   31.6637 H   0  0  0  0  0  0  0  0  0  0  0  0
  -12.7687  -22.2991   29.8550 H   0  0  0  0  0  0  0  0  0  0  0  0
  -11.2756  -22.8897   30.2217 H   0  0  0  0  0  0  0  0  0  0  0  0
  -11.7059  -20.1466   30.9406 H   0  0  0  0  0  0  0  0  0  0  0  0
   -8.1766  -18.6469   28.1912 H   0  0  0  0  0  0  0  0  0  0  0  0
  -10.8021  -15.6217   27.0926 H   0  0  0  0  0  0  0  0  0  0  0  0
  -12.1902  -17.1291   28.9631 H   0  0  0  0  0  0  0  0  0  0  0  0
  -10.7759  -24.0528   31.3025 H   0  0  0  0  0  0  0  0  0  0  0  0
  -11.2845  -27.7990   31.3896 H   0  0  0  0  0  0  0  0  0  0  0  0
  -12.4233  -27.8253   28.9605 H   0  0  0  0  0  0  0  0  0  0  0  0
  -12.6624  -26.4310   26.8260 H   0  0  0  0  0  0  0  0  0  0  0  0
  -11.0393  -24.5841   26.4874 H   0  0  0  0  0  0  0  0  0  0  0  0
  1  2  1  0
  2  3  1  0
  3  4  1  0
  4  5  1  0
  5  6  1  0
  6  7  2  0
  6  8  1  0
  8  9  2  0
  9 10  1  0
 10 11  2  0
 11 12  1  0
  2 13  1  0
 13 14  1  0
 14 15  2  0
 14 16  1  0
 16 17  2  0
 17 18  1  0
 18 19  1  0
 19 20  2  0
 20 21  1  0
 21 22  2  0
 22 23  1  0
 23 24  2  0
 12  8  1  0
 24 16  1  0
 23 18  1  0
  1 25  1  0
  1 26  1  0
  1 27  1  0
  2 28  1  0
  3 29  1  0
  3 30  1  0
  4 31  1  0
  4 32  1  0
  5 33  1  0
  9 34  1  0
 11 35  1  0
 12 36  1  0
 13 37  1  0
 17 38  1  0
 19 39  1  0
 20 40  1  0
 21 41  1  0
M  END
>  <Energy>  (1162) 
311.55402291100489

>  <compound_id>  (1162) 
19445

>  <target_id>  (1162) 
1

>  <reference_id>  (1162) 
107

>  <inspiration_ids>  (1162) 
[107, 35]

>  <energy_score>  (1162) 
291.66639636912254

>  <distance_score>  (1162) 
3.345250619048541

>  <path>  (1162) 
/opt/xchem-fragalysis-2/maxwin/BulkDock/SCRATCH/511021/C19445-P107/C19445-P107.minimised.mol

>  <scratch_subdir>  (1162) 
/opt/xchem-fragalysis-2/maxwin/BulkDock/SCRATCH/511021/C19445-P107

>  <fragmenstein_runtime>  (1162) 
9.833354949951172

>  <fragmenstein_outcome>  (1162) 
too moved

>  <fragmenstein_mode>  (1162) 
expansion

>  <fragmenstein_error>  (1162) 


$$$$
C19445-P35
     RDKit          3D

 41 43  0  0  0  0  0  0  0  0999 V2000
  -11.6786  -22.2487   35.0464 C   0  0  0  0  0  0  0  0  0  0  0  0
  -10.9250  -22.7765   33.8329 C   0  0  0  0  0  0  0  0  0  0  0  0
  -10.5655  -21.5851   32.9308 C   0  0  0  0  0  0  0  0  0  0  0  0
  -11.0527  -21.8112   31.4923 C   0  0  0  0  0  0  0  0  0  0  0  0
  -10.8515  -20.6991   30.6899 N   0  0  0  0  0  0  0  0  0  0  0  0
  -11.1753  -20.4572   29.3192 C   0  0  0  0  0  0  0  0  0  0  0  0
  -11.6305  -21.1890   28.4851 O   0  0  0  0  0  0  0  0  0  0  0  0
  -10.8413  -18.4833   29.0547 C   0  0  0  0  0  0  0  0  0  0  0  0
   -9.2364  -18.4308   28.0149 C   0  0  0  0  0  0  0  0  0  0  0  0
   -9.2915  -17.3644   27.0162 N   0  0  0  0  0  0  0  0  0  0  0  0
  -10.5011  -16.8383   27.1214 C   0  0  0  0  0  0  0  0  0  0  0  0
  -11.5747  -17.6533   28.3463 N   0  0  0  0  0  0  0  0  0  0  0  0
  -11.5522  -23.7167   32.9289 N   0  0  0  0  0  0  0  0  0  0  0  0
  -12.8852  -23.7569   32.3815 C   0  0  0  0  0  0  0  0  0  0  0  0
  -13.8414  -23.0700   32.5995 O   0  0  0  0  0  0  0  0  0  0  0  0
  -12.9097  -24.7884   31.3336 C   0  0  0  0  0  0  0  0  0  0  0  0
  -13.9472  -25.0898   30.4816 C   0  0  0  0  0  0  0  0  0  0  0  0
  -13.3500  -25.6940   29.4118 N   0  0  0  0  0  0  0  0  0  0  0  0
  -13.8901  -26.0563   28.1891 C   0  0  0  0  0  0  0  0  0  0  0  0
  -13.0854  -26.5557   27.2423 C   0  0  0  0  0  0  0  0  0  0  0  0
  -11.6562  -26.6967   27.6385 C   0  0  0  0  0  0  0  0  0  0  0  0
  -11.1371  -26.3803   28.7833 N   0  0  0  0  0  0  0  0  0  0  0  0
  -11.9952  -25.8439   29.6965 C   0  0  0  0  0  0  0  0  0  0  0  0
  -11.7232  -25.3554   30.8830 N   0  0  0  0  0  0  0  0  0  0  0  0
  -11.7664  -22.9960   35.8368 H   0  0  0  0  0  0  0  0  0  0  0  0
  -11.1344  -21.4102   35.4968 H   0  0  0  0  0  0  0  0  0  0  0  0
  -12.6760  -21.8909   34.7779 H   0  0  0  0  0  0  0  0  0  0  0  0
   -9.9990  -23.2522   34.1759 H   0  0  0  0  0  0  0  0  0  0  0  0
   -9.4903  -21.3986   32.9846 H   0  0  0  0  0  0  0  0  0  0  0  0
  -11.0182  -20.6572   33.3077 H   0  0  0  0  0  0  0  0  0  0  0  0
  -10.7968  -22.7381   30.9938 H   0  0  0  0  0  0  0  0  0  0  0  0
  -12.1435  -21.7886   31.5107 H   0  0  0  0  0  0  0  0  0  0  0  0
  -10.4120  -19.8838   31.0696 H   0  0  0  0  0  0  0  0  0  0  0  0
   -8.3161  -18.8811   28.3188 H   0  0  0  0  0  0  0  0  0  0  0  0
  -10.7860  -15.7817   26.9870 H   0  0  0  0  0  0  0  0  0  0  0  0
  -12.3686  -17.2510   28.8679 H   0  0  0  0  0  0  0  0  0  0  0  0
  -11.0207  -24.5131   32.5699 H   0  0  0  0  0  0  0  0  0  0  0  0
  -14.9836  -24.7894   30.4890 H   0  0  0  0  0  0  0  0  0  0  0  0
  -14.9489  -25.8903   28.0386 H   0  0  0  0  0  0  0  0  0  0  0  0
  -13.4078  -26.8405   26.2522 H   0  0  0  0  0  0  0  0  0  0  0  0
  -11.0013  -27.1293   26.8642 H   0  0  0  0  0  0  0  0  0  0  0  0
  1  2  1  0
  2  3  1  0
  3  4  1  0
  4  5  1  0
  5  6  1  0
  6  7  2  0
  6  8  1  0
  8  9  2  0
  9 10  1  0
 10 11  2  0
 11 12  1  0
  2 13  1  0
 13 14  1  0
 14 15  2  0
 14 16  1  0
 16 17  2  0
 17 18  1  0
 18 19  1  0
 19 20  2  0
 20 21  1  0
 21 22  2  0
 22 23  1  0
 23 24  2  0
 12  8  1  0
 24 16  1  0
 23 18  1  0
  1 25  1  0
  1 26  1  0
  1 27  1  0
  2 28  1  0
  3 29  1  0
  3 30  1  0
  4 31  1  0
  4 32  1  0
  5 33  1  0
  9 34  1  0
 11 35  1  0
 12 36  1  0
 13 37  1  0
 17 38  1  0
 19 39  1  0
 20 40  1  0
 21 41  1  0
M  END
>  <Energy>  (1163) 
280.27231744609827

>  <compound_id>  (1163) 
19445

>  <target_id>  (1163) 
1

>  <reference_id>  (1163) 
35

>  <inspiration_ids>  (1163) 
[107, 35]

>  <energy_score>  (1163) 
260.38469090421603

>  <distance_score>  (1163) 
3.7576289094790893

>  <path>  (1163) 
/opt/xchem-fragalysis-2/maxwin/BulkDock/SCRATCH/511021/C19445-P35/C19445-P35.minimised.mol

>  <scratch_subdir>  (1163) 
/opt/xchem-fragalysis-2/maxwin/BulkDock/SCRATCH/511021/C19445-P35

>  <fragmenstein_runtime>  (1163) 
11.40712594985962

>  <fragmenstein_outcome>  (1163) 
too moved

>  <fragmenstein_mode>  (1163) 
expansion

>  <fragmenstein_error>  (1163) 


$$$$
C19446-P107
     RDKit          3D

 42 44  0  0  0  0  0  0  0  0999 V2000
  -11.1063  -25.9706   26.7513 C   0  0  0  0  0  0  0  0  0  0  0  0
  -11.4553  -25.9879   28.2312 C   0  0  0  0  0  0  0  0  0  0  0  0
  -10.2025  -26.1862   29.1228 C   0  0  0  0  0  0  0  0  0  0  0  0
  -10.3981  -25.8905   30.5723 C   0  0  0  0  0  0  0  0  0  0  0  0
  -11.5325  -25.7248   31.3293 C   0  0  0  0  0  0  0  0  0  0  0  0
  -11.2613  -25.2316   32.5689 N   0  0  0  0  0  0  0  0  0  0  0  0
   -9.9571  -25.2241   32.6358 C   0  0  0  0  0  0  0  0  0  0  0  0
   -9.3895  -25.6582   31.4737 N   0  0  0  0  0  0  0  0  0  0  0  0
  -12.3224  -24.7386   28.4852 C   0  0  0  0  0  0  0  0  0  0  0  0
  -13.5090  -24.8448   28.3524 O   0  0  0  0  0  0  0  0  0  0  0  0
  -11.5286  -23.6422   28.9432 N   0  0  0  0  0  0  0  0  0  0  0  0
  -11.9049  -22.3676   29.4748 C   0  0  0  0  0  0  0  0  0  0  0  0
  -12.6607  -22.5474   30.7931 C   0  0  0  0  0  0  0  0  0  0  0  0
  -11.8823  -22.0137   31.9896 C   0  0  0  0  0  0  0  0  0  0  0  0
  -10.6702  -21.8368   31.9277 O   0  0  0  0  0  0  0  0  0  0  0  0
  -12.6732  -21.5439   33.0945 C   0  0  0  0  0  0  0  0  0  0  0  0
  -12.4927  -20.4278   33.8896 C   0  0  0  0  0  0  0  0  0  0  0  0
  -13.7135  -19.9551   34.3240 N   0  0  0  0  0  0  0  0  0  0  0  0
  -14.5873  -20.8705   33.9611 C   0  0  0  0  0  0  0  0  0  0  0  0
  -15.9400  -20.8847   34.1092 N   0  0  0  0  0  0  0  0  0  0  0  0
  -16.4852  -22.0597   34.0178 C   0  0  0  0  0  0  0  0  0  0  0  0
  -15.7807  -23.3445   33.7796 C   0  0  0  0  0  0  0  0  0  0  0  0
  -14.4877  -23.2279   33.4517 C   0  0  0  0  0  0  0  0  0  0  0  0
  -13.9099  -21.9815   33.4755 N   0  0  0  0  0  0  0  0  0  0  0  0
  -10.5695  -25.0520   26.4976 H   0  0  0  0  0  0  0  0  0  0  0  0
  -12.0132  -25.9798   26.1368 H   0  0  0  0  0  0  0  0  0  0  0  0
  -10.5031  -26.8384   26.4745 H   0  0  0  0  0  0  0  0  0  0  0  0
  -12.1110  -26.8500   28.4209 H   0  0  0  0  0  0  0  0  0  0  0  0
   -9.8649  -27.2166   29.0297 H   0  0  0  0  0  0  0  0  0  0  0  0
   -9.3800  -25.5670   28.7425 H   0  0  0  0  0  0  0  0  0  0  0  0
  -12.5462  -25.8446   31.0005 H   0  0  0  0  0  0  0  0  0  0  0  0
   -9.3652  -24.9619   33.4960 H   0  0  0  0  0  0  0  0  0  0  0  0
   -8.3991  -25.8153   31.3650 H   0  0  0  0  0  0  0  0  0  0  0  0
  -10.5685  -23.9355   29.0034 H   0  0  0  0  0  0  0  0  0  0  0  0
  -11.0182  -21.7368   29.5511 H   0  0  0  0  0  0  0  0  0  0  0  0
  -12.5263  -21.9186   28.7111 H   0  0  0  0  0  0  0  0  0  0  0  0
  -13.6061  -22.0036   30.7244 H   0  0  0  0  0  0  0  0  0  0  0  0
  -12.9315  -23.5837   30.9841 H   0  0  0  0  0  0  0  0  0  0  0  0
  -11.6165  -19.7985   33.9736 H   0  0  0  0  0  0  0  0  0  0  0  0
  -17.5789  -22.1444   34.1292 H   0  0  0  0  0  0  0  0  0  0  0  0
  -16.3352  -24.2701   33.7926 H   0  0  0  0  0  0  0  0  0  0  0  0
  -13.8514  -24.0631   33.1910 H   0  0  0  0  0  0  0  0  0  0  0  0
  1  2  1  0
  2  3  1  0
  3  4  1  0
  4  5  2  0
  5  6  1  0
  6  7  2  0
  7  8  1  0
  2  9  1  0
  9 10  2  0
  9 11  1  0
 11 12  1  0
 12 13  1  0
 13 14  1  0
 14 15  2  0
 14 16  1  0
 16 17  2  0
 17 18  1  0
 18 19  2  0
 19 20  1  0
 20 21  2  0
 21 22  1  0
 22 23  2  0
 23 24  1  0
  8  4  1  0
 24 16  1  0
 24 19  1  0
  1 25  1  0
  1 26  1  0
  1 27  1  0
  2 28  1  0
  3 29  1  0
  3 30  1  0
  5 31  1  0
  7 32  1  0
  8 33  1  0
 11 34  1  0
 12 35  1  0
 12 36  1  0
 13 37  1  0
 13 38  1  0
 17 39  1  0
 21 40  1  0
 22 41  1  0
 23 42  1  0
M  END
>  <Energy>  (1164) 
25.825457463281897

>  <compound_id>  (1164) 
19446

>  <target_id>  (1164) 
1

>  <reference_id>  (1164) 
107

>  <inspiration_ids>  (1164) 
[107, 35]

>  <energy_score>  (1164) 
-30.446211802075823

>  <distance_score>  (1164) 
4.6234400729241525

>  <path>  (1164) 
/opt/xchem-fragalysis-2/maxwin/BulkDock/SCRATCH/511021/C19446-P107/C19446-P107.minimised.mol

>  <scratch_subdir>  (1164) 
/opt/xchem-fragalysis-2/maxwin/BulkDock/SCRATCH/511021/C19446-P107

>  <fragmenstein_runtime>  (1164) 
9.097848892211914

>  <fragmenstein_outcome>  (1164) 
too moved

>  <fragmenstein_mode>  (1164) 
expansion

>  <fragmenstein_error>  (1164) 


$$$$
C19446-P35
     RDKit          3D

 42 44  0  0  0  0  0  0  0  0999 V2000
  -12.2540  -28.9484   28.1943 C   0  0  0  0  0  0  0  0  0  0  0  0
  -11.5069  -27.6258   28.2859 C   0  0  0  0  0  0  0  0  0  0  0  0
  -10.1341  -27.6399   28.9785 C   0  0  0  0  0  0  0  0  0  0  0  0
  -10.2309  -27.3855   30.4424 C   0  0  0  0  0  0  0  0  0  0  0  0
  -11.1624  -27.7915   31.3659 C   0  0  0  0  0  0  0  0  0  0  0  0
  -10.8665  -27.2968   32.5989 N   0  0  0  0  0  0  0  0  0  0  0  0
   -9.7716  -26.5916   32.4503 C   0  0  0  0  0  0  0  0  0  0  0  0
   -9.3215  -26.6555   31.1687 N   0  0  0  0  0  0  0  0  0  0  0  0
  -11.4348  -26.9364   26.9180 C   0  0  0  0  0  0  0  0  0  0  0  0
  -11.5764  -27.4322   25.8807 O   0  0  0  0  0  0  0  0  0  0  0  0
  -11.2389  -25.4676   27.2963 N   0  0  0  0  0  0  0  0  0  0  0  0
  -11.2706  -24.2815   26.4843 C   0  0  0  0  0  0  0  0  0  0  0  0
  -11.3263  -23.1085   27.4398 C   0  0  0  0  0  0  0  0  0  0  0  0
  -12.3441  -23.4437   28.4844 C   0  0  0  0  0  0  0  0  0  0  0  0
  -13.2866  -24.1918   28.2380 O   0  0  0  0  0  0  0  0  0  0  0  0
  -12.1316  -22.9504   29.7972 C   0  0  0  0  0  0  0  0  0  0  0  0
  -11.4580  -21.8577   30.2659 C   0  0  0  0  0  0  0  0  0  0  0  0
  -11.7876  -21.5844   31.5492 N   0  0  0  0  0  0  0  0  0  0  0  0
  -12.7671  -22.4210   31.8082 C   0  0  0  0  0  0  0  0  0  0  0  0
  -13.7641  -22.3124   32.7072 N   0  0  0  0  0  0  0  0  0  0  0  0
  -14.6317  -23.2776   32.6788 C   0  0  0  0  0  0  0  0  0  0  0  0
  -14.5951  -24.5149   31.8527 C   0  0  0  0  0  0  0  0  0  0  0  0
  -13.6089  -24.5447   30.9629 C   0  0  0  0  0  0  0  0  0  0  0  0
  -12.7932  -23.4381   30.8763 N   0  0  0  0  0  0  0  0  0  0  0  0
  -13.2999  -28.7655   27.9188 H   0  0  0  0  0  0  0  0  0  0  0  0
  -11.8528  -29.5993   27.4208 H   0  0  0  0  0  0  0  0  0  0  0  0
  -12.2622  -29.4793   29.1486 H   0  0  0  0  0  0  0  0  0  0  0  0
  -12.1866  -26.9973   28.8830 H   0  0  0  0  0  0  0  0  0  0  0  0
   -9.6355  -28.5873   28.8418 H   0  0  0  0  0  0  0  0  0  0  0  0
   -9.4641  -26.8932   28.5390 H   0  0  0  0  0  0  0  0  0  0  0  0
  -12.0379  -28.4087   31.2144 H   0  0  0  0  0  0  0  0  0  0  0  0
   -9.2452  -26.0599   33.2314 H   0  0  0  0  0  0  0  0  0  0  0  0
   -8.4465  -26.2624   30.8496 H   0  0  0  0  0  0  0  0  0  0  0  0
  -11.0639  -25.3954   28.2914 H   0  0  0  0  0  0  0  0  0  0  0  0
  -10.4152  -24.2283   25.8270 H   0  0  0  0  0  0  0  0  0  0  0  0
  -12.1638  -24.3378   25.8527 H   0  0  0  0  0  0  0  0  0  0  0  0
  -10.3552  -23.0140   27.9374 H   0  0  0  0  0  0  0  0  0  0  0  0
  -11.5773  -22.1725   26.9484 H   0  0  0  0  0  0  0  0  0  0  0  0
  -10.8178  -21.2036   29.6969 H   0  0  0  0  0  0  0  0  0  0  0  0
  -15.5037  -23.2099   33.3487 H   0  0  0  0  0  0  0  0  0  0  0  0
  -15.3265  -25.2923   32.0015 H   0  0  0  0  0  0  0  0  0  0  0  0
  -13.4880  -25.3597   30.2646 H   0  0  0  0  0  0  0  0  0  0  0  0
  1  2  1  0
  2  3  1  0
  3  4  1  0
  4  5  2  0
  5  6  1  0
  6  7  2  0
  7  8  1  0
  2  9  1  0
  9 10  2  0
  9 11  1  0
 11 12  1  0
 12 13  1  0
 13 14  1  0
 14 15  2  0
 14 16  1  0
 16 17  2  0
 17 18  1  0
 18 19  2  0
 19 20  1  0
 20 21  2  0
 21 22  1  0
 22 23  2  0
 23 24  1  0
  8  4  1  0
 24 16  1  0
 24 19  1  0
  1 25  1  0
  1 26  1  0
  1 27  1  0
  2 28  1  0
  3 29  1  0
  3 30  1  0
  5 31  1  0
  7 32  1  0
  8 33  1  0
 11 34  1  0
 12 35  1  0
 12 36  1  0
 13 37  1  0
 13 38  1  0
 17 39  1  0
 21 40  1  0
 22 41  1  0
 23 42  1  0
M  END
>  <Energy>  (1165) 
44.481296743901083

>  <compound_id>  (1165) 
19446

>  <target_id>  (1165) 
1

>  <reference_id>  (1165) 
35

>  <inspiration_ids>  (1165) 
[107, 35]

>  <energy_score>  (1165) 
11.75534773918423

>  <distance_score>  (1165) 
3.3445683197304046

>  <path>  (1165) 
/opt/xchem-fragalysis-2/maxwin/BulkDock/SCRATCH/511021/C19446-P35/C19446-P35.minimised.mol

>  <scratch_subdir>  (1165) 
/opt/xchem-fragalysis-2/maxwin/BulkDock/SCRATCH/511021/C19446-P35

>  <fragmenstein_runtime>  (1165) 
8.111780405044556

>  <fragmenstein_outcome>  (1165) 
too moved

>  <fragmenstein_mode>  (1165) 
expansion

>  <fragmenstein_error>  (1165) 


$$$$
C47268-P107
     RDKit          3D

 31 33  0  0  0  0  0  0  0  0999 V2000
  -11.7297  -25.9516   25.9224 C   0  0  0  0  0  0  0  0  0  0  0  0
  -11.7634  -25.2532   27.2242 N   0  0  0  0  0  0  0  0  0  0  0  0
  -11.1514  -26.5908   27.6606 C   0  0  0  0  0  0  0  0  0  0  0  0
  -10.7874  -26.6035   29.1318 C   0  0  0  0  0  0  0  0  0  0  0  0
   -9.8026  -25.9100   29.8004 C   0  0  0  0  0  0  0  0  0  0  0  0
   -9.7991  -26.3999   31.0734 N   0  0  0  0  0  0  0  0  0  0  0  0
  -10.7864  -27.3330   31.1311 C   0  0  0  0  0  0  0  0  0  0  0  0
  -11.4460  -27.4364   30.0033 N   0  0  0  0  0  0  0  0  0  0  0  0
  -12.9181  -24.8739   28.0981 C   0  0  0  0  0  0  0  0  0  0  0  0
  -14.0620  -25.1131   27.9920 O   0  0  0  0  0  0  0  0  0  0  0  0
  -12.4075  -23.9965   29.1573 C   0  0  0  0  0  0  0  0  0  0  0  0
  -11.8386  -22.6600   28.8704 C   0  0  0  0  0  0  0  0  0  0  0  0
  -11.5279  -21.7590   29.7528 N   0  0  0  0  0  0  0  0  0  0  0  0
  -11.7604  -22.1058   31.0554 C   0  0  0  0  0  0  0  0  0  0  0  0
  -11.6719  -21.3627   32.1339 N   0  0  0  0  0  0  0  0  0  0  0  0
  -12.1043  -22.1470   33.1672 C   0  0  0  0  0  0  0  0  0  0  0  0
  -12.3534  -23.4266   32.7499 C   0  0  0  0  0  0  0  0  0  0  0  0
  -12.1995  -23.3752   31.3967 N   0  0  0  0  0  0  0  0  0  0  0  0
  -12.4969  -24.3145   30.4493 C   0  0  0  0  0  0  0  0  0  0  0  0
  -11.8919  -25.1121   25.2356 H   0  0  0  0  0  0  0  0  0  0  0  0
  -12.6358  -26.5469   25.7777 H   0  0  0  0  0  0  0  0  0  0  0  0
  -10.8147  -26.4035   25.5269 H   0  0  0  0  0  0  0  0  0  0  0  0
  -10.1712  -26.7887   27.1983 H   0  0  0  0  0  0  0  0  0  0  0  0
  -11.8636  -27.4231   27.5544 H   0  0  0  0  0  0  0  0  0  0  0  0
   -9.0972  -25.1699   29.4632 H   0  0  0  0  0  0  0  0  0  0  0  0
   -9.1313  -26.2251   31.8171 H   0  0  0  0  0  0  0  0  0  0  0  0
  -10.9506  -27.9197   32.0159 H   0  0  0  0  0  0  0  0  0  0  0  0
  -11.6821  -22.4271   27.8039 H   0  0  0  0  0  0  0  0  0  0  0  0
  -12.1903  -21.7468   34.1652 H   0  0  0  0  0  0  0  0  0  0  0  0
  -12.7046  -24.3063   33.2703 H   0  0  0  0  0  0  0  0  0  0  0  0
  -12.8385  -25.2646   30.8088 H   0  0  0  0  0  0  0  0  0  0  0  0
  1  2  1  0
  2  3  1  0
  3  4  1  0
  4  5  2  0
  5  6  1  0
  6  7  1  0
  7  8  2  0
  2  9  1  0
  9 10  2  0
  9 11  1  0
 11 12  1  0
 12 13  2  0
 13 14  1  0
 14 15  2  0
 15 16  1  0
 16 17  2  0
 17 18  1  0
 18 19  1  0
  8  4  1  0
 19 11  2  0
 18 14  1  0
  1 20  1  0
  1 21  1  0
  1 22  1  0
  3 23  1  0
  3 24  1  0
  5 25  1  0
  6 26  1  0
  7 27  1  0
 12 28  1  0
 16 29  1  0
 17 30  1  0
 19 31  1  0
M  END
>  <Energy>  (1166) 
99.81688723510959

>  <compound_id>  (1166) 
47268

>  <target_id>  (1166) 
1

>  <reference_id>  (1166) 
107

>  <inspiration_ids>  (1166) 
[107, 35]

>  <energy_score>  (1166) 
54.71124505278607

>  <distance_score>  (1166) 
1.7237470820605183

>  <path>  (1166) 
/opt/xchem-fragalysis-2/maxwin/BulkDock/SCRATCH/511021/C47268-P107/C47268-P107.minimised.mol

>  <scratch_subdir>  (1166) 
/opt/xchem-fragalysis-2/maxwin/BulkDock/SCRATCH/511021/C47268-P107

>  <fragmenstein_runtime>  (1166) 
2.3189995288848877

>  <fragmenstein_outcome>  (1166) 
too moved

>  <fragmenstein_mode>  (1166) 
expansion

>  <fragmenstein_error>  (1166) 


$$$$
C47268-P35
     RDKit          3D

 31 33  0  0  0  0  0  0  0  0999 V2000
  -11.4604  -27.5677   26.8054 C   0  0  0  0  0  0  0  0  0  0  0  0
  -11.5834  -26.5266   27.8418 N   0  0  0  0  0  0  0  0  0  0  0  0
  -10.6298  -27.5120   28.5677 C   0  0  0  0  0  0  0  0  0  0  0  0
  -10.0738  -27.0398   29.8875 C   0  0  0  0  0  0  0  0  0  0  0  0
   -9.6798  -27.8464   30.9362 C   0  0  0  0  0  0  0  0  0  0  0  0
   -9.1348  -27.0121   31.8690 N   0  0  0  0  0  0  0  0  0  0  0  0
   -9.2328  -25.7483   31.3694 C   0  0  0  0  0  0  0  0  0  0  0  0
   -9.7319  -25.7409   30.1526 N   0  0  0  0  0  0  0  0  0  0  0  0
  -12.7499  -26.1473   28.7196 C   0  0  0  0  0  0  0  0  0  0  0  0
  -13.8071  -26.6462   28.8367 O   0  0  0  0  0  0  0  0  0  0  0  0
  -12.4178  -24.8916   29.4154 C   0  0  0  0  0  0  0  0  0  0  0  0
  -12.1607  -23.6283   28.6656 C   0  0  0  0  0  0  0  0  0  0  0  0
  -11.9164  -22.4585   29.1768 N   0  0  0  0  0  0  0  0  0  0  0  0
  -11.8071  -22.4325   30.5358 C   0  0  0  0  0  0  0  0  0  0  0  0
  -11.4991  -21.4192   31.3145 N   0  0  0  0  0  0  0  0  0  0  0  0
  -11.3669  -21.9248   32.5775 C   0  0  0  0  0  0  0  0  0  0  0  0
  -11.5768  -23.2770   32.5708 C   0  0  0  0  0  0  0  0  0  0  0  0
  -11.9561  -23.5870   31.2951 N   0  0  0  0  0  0  0  0  0  0  0  0
  -12.3364  -24.7942   30.7459 C   0  0  0  0  0  0  0  0  0  0  0  0
  -12.1097  -27.1598   26.0190 H   0  0  0  0  0  0  0  0  0  0  0  0
  -11.9518  -28.5197   27.0504 H   0  0  0  0  0  0  0  0  0  0  0  0
  -10.4920  -27.6543   26.2956 H   0  0  0  0  0  0  0  0  0  0  0  0
   -9.6988  -27.7094   28.0088 H   0  0  0  0  0  0  0  0  0  0  0  0
  -11.1726  -28.4346   28.8378 H   0  0  0  0  0  0  0  0  0  0  0  0
   -9.6772  -28.9206   31.0365 H   0  0  0  0  0  0  0  0  0  0  0  0
   -8.6318  -27.2806   32.7095 H   0  0  0  0  0  0  0  0  0  0  0  0
   -8.8822  -24.8857   31.9179 H   0  0  0  0  0  0  0  0  0  0  0  0
  -12.2256  -23.7117   27.5675 H   0  0  0  0  0  0  0  0  0  0  0  0
  -11.0770  -21.2941   33.4081 H   0  0  0  0  0  0  0  0  0  0  0  0
  -11.4635  -24.0283   33.3281 H   0  0  0  0  0  0  0  0  0  0  0  0
  -12.4717  -25.6358   31.4059 H   0  0  0  0  0  0  0  0  0  0  0  0
  1  2  1  0
  2  3  1  0
  3  4  1  0
  4  5  2  0
  5  6  1  0
  6  7  1  0
  7  8  2  0
  2  9  1  0
  9 10  2  0
  9 11  1  0
 11 12  1  0
 12 13  2  0
 13 14  1  0
 14 15  2  0
 15 16  1  0
 16 17  2  0
 17 18  1  0
 18 19  1  0
  8  4  1  0
 19 11  2  0
 18 14  1  0
  1 20  1  0
  1 21  1  0
  1 22  1  0
  3 23  1  0
  3 24  1  0
  5 25  1  0
  6 26  1  0
  7 27  1  0
 12 28  1  0
 16 29  1  0
 17 30  1  0
 19 31  1  0
M  END
>  <Energy>  (1167) 
102.50300418555457

>  <compound_id>  (1167) 
47268

>  <target_id>  (1167) 
1

>  <reference_id>  (1167) 
35

>  <inspiration_ids>  (1167) 
[107, 35]

>  <energy_score>  (1167) 
57.39736200323

>  <distance_score>  (1167) 
1.067933117756405

>  <path>  (1167) 
/opt/xchem-fragalysis-2/maxwin/BulkDock/SCRATCH/511021/C47268-P35/C47268-P35.minimised.mol

>  <scratch_subdir>  (1167) 
/opt/xchem-fragalysis-2/maxwin/BulkDock/SCRATCH/511021/C47268-P35

>  <fragmenstein_runtime>  (1167) 
3.637939929962158

>  <fragmenstein_outcome>  (1167) 
too moved

>  <fragmenstein_mode>  (1167) 
expansion

>  <fragmenstein_error>  (1167) 


$$$$
C47269-P107
     RDKit          3D

 33 35  0  0  0  0  0  0  0  0999 V2000
   -9.1064  -25.5684   32.3356 C   0  0  0  0  0  0  0  0  0  0  0  0
   -9.9592  -25.1534   31.2663 N   0  0  0  0  0  0  0  0  0  0  0  0
   -9.9531  -26.6591   30.9650 C   0  0  0  0  0  0  0  0  0  0  0  0
  -10.4937  -26.7958   29.5508 C   0  0  0  0  0  0  0  0  0  0  0  0
  -11.6792  -27.3777   29.1610 C   0  0  0  0  0  0  0  0  0  0  0  0
  -11.9005  -26.9279   27.8978 N   0  0  0  0  0  0  0  0  0  0  0  0
  -10.8094  -26.2116   27.5109 C   0  0  0  0  0  0  0  0  0  0  0  0
   -9.9392  -26.0988   28.4859 N   0  0  0  0  0  0  0  0  0  0  0  0
  -11.2828  -24.6710   31.2837 C   0  0  0  0  0  0  0  0  0  0  0  0
  -12.0425  -24.5750   32.1697 O   0  0  0  0  0  0  0  0  0  0  0  0
  -11.3862  -24.2328   29.8962 N   0  0  0  0  0  0  0  0  0  0  0  0
  -12.3515  -23.5053   29.2595 C   0  0  0  0  0  0  0  0  0  0  0  0
  -11.6194  -22.2270   28.8879 C   0  0  0  0  0  0  0  0  0  0  0  0
  -11.2526  -21.3482   29.7778 N   0  0  0  0  0  0  0  0  0  0  0  0
  -11.7767  -21.5782   31.0289 C   0  0  0  0  0  0  0  0  0  0  0  0
  -11.4118  -21.1552   32.2173 N   0  0  0  0  0  0  0  0  0  0  0  0
  -12.4331  -21.5140   33.0707 C   0  0  0  0  0  0  0  0  0  0  0  0
  -13.4585  -22.1329   32.3950 C   0  0  0  0  0  0  0  0  0  0  0  0
  -12.9710  -22.2899   31.1263 N   0  0  0  0  0  0  0  0  0  0  0  0
  -13.3486  -23.1386   30.0829 C   0  0  0  0  0  0  0  0  0  0  0  0
   -8.8242  -24.5804   32.7228 H   0  0  0  0  0  0  0  0  0  0  0  0
   -8.1204  -25.9689   32.1030 H   0  0  0  0  0  0  0  0  0  0  0  0
   -9.6897  -25.9080   33.1992 H   0  0  0  0  0  0  0  0  0  0  0  0
   -9.0138  -27.2149   30.9501 H   0  0  0  0  0  0  0  0  0  0  0  0
  -10.6800  -27.1682   31.6213 H   0  0  0  0  0  0  0  0  0  0  0  0
  -12.3811  -27.9872   29.7002 H   0  0  0  0  0  0  0  0  0  0  0  0
  -12.7315  -27.0732   27.3434 H   0  0  0  0  0  0  0  0  0  0  0  0
  -10.7356  -25.7663   26.5306 H   0  0  0  0  0  0  0  0  0  0  0  0
  -10.5007  -24.4068   29.4243 H   0  0  0  0  0  0  0  0  0  0  0  0
  -11.3329  -22.1274   27.8295 H   0  0  0  0  0  0  0  0  0  0  0  0
  -12.3753  -21.2893   34.1254 H   0  0  0  0  0  0  0  0  0  0  0  0
  -14.3794  -22.5943   32.7223 H   0  0  0  0  0  0  0  0  0  0  0  0
  -14.0649  -23.8539   30.3934 H   0  0  0  0  0  0  0  0  0  0  0  0
  1  2  1  0
  2  3  1  0
  3  4  1  0
  4  5  2  0
  5  6  1  0
  6  7  1  0
  7  8  2  0
  2  9  1  0
  9 10  2  0
  9 11  1  0
 11 12  1  0
 12 13  1  0
 13 14  2  0
 14 15  1  0
 15 16  2  0
 16 17  1  0
 17 18  2  0
 18 19  1  0
 19 20  1  0
  8  4  1  0
 20 12  2  0
 19 15  1  0
  1 21  1  0
  1 22  1  0
  1 23  1  0
  3 24  1  0
  3 25  1  0
  5 26  1  0
  6 27  1  0
  7 28  1  0
 11 29  1  0
 13 30  1  0
 17 31  1  0
 18 32  1  0
 20 33  1  0
M  END
>  <Energy>  (1168) 
136.17960625022044

>  <compound_id>  (1168) 
47269

>  <target_id>  (1168) 
1

>  <reference_id>  (1168) 
107

>  <inspiration_ids>  (1168) 
[107, 35]

>  <energy_score>  (1168) 
95.35177525247914

>  <distance_score>  (1168) 
2.948140745444783

>  <path>  (1168) 
/opt/xchem-fragalysis-2/maxwin/BulkDock/SCRATCH/511021/C47269-P107/C47269-P107.minimised.mol

>  <scratch_subdir>  (1168) 
/opt/xchem-fragalysis-2/maxwin/BulkDock/SCRATCH/511021/C47269-P107

>  <fragmenstein_runtime>  (1168) 
5.199002027511597

>  <fragmenstein_outcome>  (1168) 
too moved

>  <fragmenstein_mode>  (1168) 
expansion

>  <fragmenstein_error>  (1168) 


$$$$
C47269-P35
     RDKit          3D

 33 35  0  0  0  0  0  0  0  0999 V2000
  -11.7696  -28.2897   27.6671 C   0  0  0  0  0  0  0  0  0  0  0  0
  -12.2887  -27.1096   28.3511 N   0  0  0  0  0  0  0  0  0  0  0  0
  -11.9829  -27.9853   29.6157 C   0  0  0  0  0  0  0  0  0  0  0  0
  -10.9226  -27.4674   30.5460 C   0  0  0  0  0  0  0  0  0  0  0  0
   -9.6538  -27.9329   30.7841 C   0  0  0  0  0  0  0  0  0  0  0  0
   -9.1182  -27.0963   31.7280 N   0  0  0  0  0  0  0  0  0  0  0  0
  -10.0811  -26.1921   32.0597 C   0  0  0  0  0  0  0  0  0  0  0  0
  -11.1895  -26.4165   31.3928 N   0  0  0  0  0  0  0  0  0  0  0  0
  -11.7154  -25.7800   28.5083 C   0  0  0  0  0  0  0  0  0  0  0  0
  -10.6606  -25.3673   28.1975 O   0  0  0  0  0  0  0  0  0  0  0  0
  -12.7933  -25.1483   29.2464 N   0  0  0  0  0  0  0  0  0  0  0  0
  -12.8564  -23.9523   29.8591 C   0  0  0  0  0  0  0  0  0  0  0  0
  -11.8165  -22.9074   29.6060 C   0  0  0  0  0  0  0  0  0  0  0  0
  -11.5021  -21.9346   30.4082 N   0  0  0  0  0  0  0  0  0  0  0  0
  -12.1547  -21.9441   31.6034 C   0  0  0  0  0  0  0  0  0  0  0  0
  -11.8925  -21.2609   32.6980 N   0  0  0  0  0  0  0  0  0  0  0  0
  -12.9164  -21.5368   33.5624 C   0  0  0  0  0  0  0  0  0  0  0  0
  -13.8271  -22.3875   32.9874 C   0  0  0  0  0  0  0  0  0  0  0  0
  -13.2802  -22.7380   31.7919 N   0  0  0  0  0  0  0  0  0  0  0  0
  -13.6373  -23.7486   30.9230 C   0  0  0  0  0  0  0  0  0  0  0  0
  -11.7346  -27.9681   26.6188 H   0  0  0  0  0  0  0  0  0  0  0  0
  -12.4431  -29.1573   27.6768 H   0  0  0  0  0  0  0  0  0  0  0  0
  -10.7094  -28.4770   27.8727 H   0  0  0  0  0  0  0  0  0  0  0  0
  -12.9210  -27.8510   30.1822 H   0  0  0  0  0  0  0  0  0  0  0  0
  -11.9476  -29.0890   29.5630 H   0  0  0  0  0  0  0  0  0  0  0  0
   -9.0893  -28.7524   30.3734 H   0  0  0  0  0  0  0  0  0  0  0  0
   -8.1774  -27.1443   32.1097 H   0  0  0  0  0  0  0  0  0  0  0  0
   -9.9242  -25.4076   32.7886 H   0  0  0  0  0  0  0  0  0  0  0  0
  -13.5249  -25.8243   29.4049 H   0  0  0  0  0  0  0  0  0  0  0  0
  -11.3008  -22.9677   28.6335 H   0  0  0  0  0  0  0  0  0  0  0  0
  -12.9540  -21.0956   34.5480 H   0  0  0  0  0  0  0  0  0  0  0  0
  -14.7493  -22.8186   33.3449 H   0  0  0  0  0  0  0  0  0  0  0  0
  -14.4034  -24.4310   31.2628 H   0  0  0  0  0  0  0  0  0  0  0  0
  1  2  1  0
  2  3  1  0
  3  4  1  0
  4  5  2  0
  5  6  1  0
  6  7  1  0
  7  8  2  0
  2  9  1  0
  9 10  2  0
  9 11  1  0
 11 12  1  0
 12 13  1  0
 13 14  2  0
 14 15  1  0
 15 16  2  0
 16 17  1  0
 17 18  2  0
 18 19  1  0
 19 20  1  0
  8  4  1  0
 20 12  2  0
 19 15  1  0
  1 21  1  0
  1 22  1  0
  1 23  1  0
  3 24  1  0
  3 25  1  0
  5 26  1  0
  6 27  1  0
  7 28  1  0
 11 29  1  0
 13 30  1  0
 17 31  1  0
 18 32  1  0
 20 33  1  0
M  END
>  <Energy>  (1169) 
68.500849574576847

>  <compound_id>  (1169) 
47269

>  <target_id>  (1169) 
1

>  <reference_id>  (1169) 
35

>  <inspiration_ids>  (1169) 
[107, 35]

>  <energy_score>  (1169) 
27.67301857682861

>  <distance_score>  (1169) 
1.9923166915240462

>  <path>  (1169) 
/opt/xchem-fragalysis-2/maxwin/BulkDock/SCRATCH/511021/C47269-P35/C47269-P35.minimised.mol

>  <scratch_subdir>  (1169) 
/opt/xchem-fragalysis-2/maxwin/BulkDock/SCRATCH/511021/C47269-P35

>  <fragmenstein_runtime>  (1169) 
4.838050127029419

>  <fragmenstein_outcome>  (1169) 
too moved

>  <fragmenstein_mode>  (1169) 
expansion

>  <fragmenstein_error>  (1169) 


$$$$
C19447-P107
     RDKit          3D

 38 40  0  0  0  0  0  0  0  0999 V2000
  -11.0760  -26.3785   25.8252 C   0  0  0  0  0  0  0  0  0  0  0  0
  -12.2062  -26.3539   26.8008 C   0  0  0  0  0  0  0  0  0  0  0  0
  -12.1314  -27.4970   27.8468 C   0  0  0  0  0  0  0  0  0  0  0  0
  -11.5201  -27.1302   29.0951 N   0  0  0  0  0  0  0  0  0  0  0  0
  -10.2772  -26.2743   29.3848 C   0  0  0  0  0  0  0  0  0  0  0  0
   -9.5056  -25.7934   28.6573 O   0  0  0  0  0  0  0  0  0  0  0  0
  -10.2223  -26.0292   30.7949 C   0  0  0  0  0  0  0  0  0  0  0  0
  -11.2579  -26.0057   31.6924 C   0  0  0  0  0  0  0  0  0  0  0  0
  -10.9110  -25.4560   32.8747 N   0  0  0  0  0  0  0  0  0  0  0  0
   -9.6493  -25.1754   32.7343 C   0  0  0  0  0  0  0  0  0  0  0  0
   -9.1655  -25.5841   31.5358 N   0  0  0  0  0  0  0  0  0  0  0  0
  -12.2037  -25.1715   27.5829 N   0  0  0  0  0  0  0  0  0  0  0  0
  -13.3123  -24.5019   28.3472 C   0  0  0  0  0  0  0  0  0  0  0  0
  -14.4378  -24.7539   28.4107 O   0  0  0  0  0  0  0  0  0  0  0  0
  -12.7082  -23.4471   29.1554 C   0  0  0  0  0  0  0  0  0  0  0  0
  -11.7627  -22.3657   28.8507 C   0  0  0  0  0  0  0  0  0  0  0  0
  -11.2296  -21.5713   29.7340 N   0  0  0  0  0  0  0  0  0  0  0  0
  -11.5747  -21.7882   31.0458 C   0  0  0  0  0  0  0  0  0  0  0  0
  -11.3008  -21.0850   32.1203 N   0  0  0  0  0  0  0  0  0  0  0  0
  -12.0446  -21.6332   33.1385 C   0  0  0  0  0  0  0  0  0  0  0  0
  -12.6620  -22.7773   32.7278 C   0  0  0  0  0  0  0  0  0  0  0  0
  -12.4063  -22.8236   31.3941 N   0  0  0  0  0  0  0  0  0  0  0  0
  -12.9208  -23.6494   30.4538 C   0  0  0  0  0  0  0  0  0  0  0  0
  -10.9283  -25.3830   25.3962 H   0  0  0  0  0  0  0  0  0  0  0  0
  -11.2640  -27.0743   25.0068 H   0  0  0  0  0  0  0  0  0  0  0  0
  -10.1706  -26.7185   26.3264 H   0  0  0  0  0  0  0  0  0  0  0  0
  -13.1640  -26.3945   26.2709 H   0  0  0  0  0  0  0  0  0  0  0  0
  -13.1489  -27.8034   28.1130 H   0  0  0  0  0  0  0  0  0  0  0  0
  -11.5957  -28.3643   27.4983 H   0  0  0  0  0  0  0  0  0  0  0  0
  -11.9171  -27.4507   29.9635 H   0  0  0  0  0  0  0  0  0  0  0  0
  -12.2876  -26.2364   31.5071 H   0  0  0  0  0  0  0  0  0  0  0  0
   -9.0501  -24.7116   33.4855 H   0  0  0  0  0  0  0  0  0  0  0  0
   -8.2023  -25.5304   31.2533 H   0  0  0  0  0  0  0  0  0  0  0  0
  -11.3476  -24.6356   27.6907 H   0  0  0  0  0  0  0  0  0  0  0  0
  -11.5081  -22.2290   27.7874 H   0  0  0  0  0  0  0  0  0  0  0  0
  -12.0760  -21.1851   34.1220 H   0  0  0  0  0  0  0  0  0  0  0  0
  -13.2886  -23.4976   33.2367 H   0  0  0  0  0  0  0  0  0  0  0  0
  -13.5089  -24.4401   30.8441 H   0  0  0  0  0  0  0  0  0  0  0  0
  1  2  1  0
  2  3  1  0
  3  4  1  0
  4  5  1  0
  5  6  2  0
  5  7  1  0
  7  8  2  0
  8  9  1  0
  9 10  2  0
 10 11  1  0
  2 12  1  0
 12 13  1  0
 13 14  2  0
 13 15  1  0
 15 16  1  0
 16 17  2  0
 17 18  1  0
 18 19  2  0
 19 20  1  0
 20 21  2  0
 21 22  1  0
 22 23  1  0
 11  7  1  0
 23 15  2  0
 22 18  1  0
  1 24  1  0
  1 25  1  0
  1 26  1  0
  2 27  1  0
  3 28  1  0
  3 29  1  0
  4 30  1  0
  8 31  1  0
 10 32  1  0
 11 33  1  0
 12 34  1  0
 16 35  1  0
 20 36  1  0
 21 37  1  0
 23 38  1  0
M  END
>  <Energy>  (1170) 
19.212659318206178

>  <compound_id>  (1170) 
19447

>  <target_id>  (1170) 
1

>  <reference_id>  (1170) 
107

>  <inspiration_ids>  (1170) 
[107, 35]

>  <energy_score>  (1170) 
13.373943620250635

>  <distance_score>  (1170) 
2.4846621304688754

>  <path>  (1170) 
/opt/xchem-fragalysis-2/maxwin/BulkDock/SCRATCH/511021/C19447-P107/C19447-P107.minimised.mol

>  <scratch_subdir>  (1170) 
/opt/xchem-fragalysis-2/maxwin/BulkDock/SCRATCH/511021/C19447-P107

>  <fragmenstein_runtime>  (1170) 
5.030383348464966

>  <fragmenstein_outcome>  (1170) 
too moved

>  <fragmenstein_mode>  (1170) 
expansion

>  <fragmenstein_error>  (1170) 


$$$$
C19447-P35
     RDKit          3D

 38 40  0  0  0  0  0  0  0  0999 V2000
  -15.5875  -28.3982   27.8425 C   0  0  0  0  0  0  0  0  0  0  0  0
  -14.9427  -28.1956   29.2084 C   0  0  0  0  0  0  0  0  0  0  0  0
  -13.9089  -29.3269   29.5226 C   0  0  0  0  0  0  0  0  0  0  0  0
  -12.6421  -28.7510   29.8931 N   0  0  0  0  0  0  0  0  0  0  0  0
  -12.0777  -28.3875   31.2716 C   0  0  0  0  0  0  0  0  0  0  0  0
  -12.5134  -28.5655   32.3362 O   0  0  0  0  0  0  0  0  0  0  0  0
  -10.8534  -27.6254   31.1190 C   0  0  0  0  0  0  0  0  0  0  0  0
  -10.0914  -27.2719   30.0228 C   0  0  0  0  0  0  0  0  0  0  0  0
   -9.2760  -26.2153   30.3176 N   0  0  0  0  0  0  0  0  0  0  0  0
   -9.3824  -26.0410   31.6117 C   0  0  0  0  0  0  0  0  0  0  0  0
  -10.2843  -26.9018   32.1510 N   0  0  0  0  0  0  0  0  0  0  0  0
  -14.3414  -26.8654   29.3084 N   0  0  0  0  0  0  0  0  0  0  0  0
  -13.2247  -26.2004   28.4656 C   0  0  0  0  0  0  0  0  0  0  0  0
  -12.6667  -26.5820   27.5140 O   0  0  0  0  0  0  0  0  0  0  0  0
  -12.8073  -24.9197   29.1126 C   0  0  0  0  0  0  0  0  0  0  0  0
  -12.3330  -23.7449   28.3167 C   0  0  0  0  0  0  0  0  0  0  0  0
  -11.9304  -22.6012   28.7860 N   0  0  0  0  0  0  0  0  0  0  0  0
  -11.8508  -22.5080   30.1424 C   0  0  0  0  0  0  0  0  0  0  0  0
  -11.4928  -21.4841   30.8859 N   0  0  0  0  0  0  0  0  0  0  0  0
  -11.4516  -21.9380   32.1779 C   0  0  0  0  0  0  0  0  0  0  0  0
  -11.7837  -23.2652   32.2246 C   0  0  0  0  0  0  0  0  0  0  0  0
  -12.1182  -23.6049   30.9447 N   0  0  0  0  0  0  0  0  0  0  0  0
  -12.6162  -24.7888   30.4369 C   0  0  0  0  0  0  0  0  0  0  0  0
  -16.0991  -29.3649   27.7940 H   0  0  0  0  0  0  0  0  0  0  0  0
  -16.3244  -27.6131   27.6411 H   0  0  0  0  0  0  0  0  0  0  0  0
  -14.8436  -28.3659   27.0394 H   0  0  0  0  0  0  0  0  0  0  0  0
  -15.7297  -28.2256   29.9713 H   0  0  0  0  0  0  0  0  0  0  0  0
  -14.2704  -29.9335   30.3590 H   0  0  0  0  0  0  0  0  0  0  0  0
  -13.7405  -29.9801   28.6611 H   0  0  0  0  0  0  0  0  0  0  0  0
  -11.9628  -28.5221   29.1794 H   0  0  0  0  0  0  0  0  0  0  0  0
  -10.1453  -27.6294   29.0024 H   0  0  0  0  0  0  0  0  0  0  0  0
   -8.8430  -25.3135   32.2012 H   0  0  0  0  0  0  0  0  0  0  0  0
  -10.5937  -26.9097   33.1147 H   0  0  0  0  0  0  0  0  0  0  0  0
  -14.5414  -26.2911   30.1188 H   0  0  0  0  0  0  0  0  0  0  0  0
  -12.3687  -23.8745   27.2212 H   0  0  0  0  0  0  0  0  0  0  0  0
  -11.1515  -21.2910   32.9928 H   0  0  0  0  0  0  0  0  0  0  0  0
  -11.8057  -23.9717   33.0307 H   0  0  0  0  0  0  0  0  0  0  0  0
  -12.8095  -25.5636   31.1623 H   0  0  0  0  0  0  0  0  0  0  0  0
  1  2  1  0
  2  3  1  0
  3  4  1  0
  4  5  1  0
  5  6  2  0
  5  7  1  0
  7  8  2  0
  8  9  1  0
  9 10  2  0
 10 11  1  0
  2 12  1  0
 12 13  1  0
 13 14  2  0
 13 15  1  0
 15 16  1  0
 16 17  2  0
 17 18  1  0
 18 19  2  0
 19 20  1  0
 20 21  2  0
 21 22  1  0
 22 23  1  0
 11  7  1  0
 23 15  2  0
 22 18  1  0
  1 24  1  0
  1 25  1  0
  1 26  1  0
  2 27  1  0
  3 28  1  0
  3 29  1  0
  4 30  1  0
  8 31  1  0
 10 32  1  0
 11 33  1  0
 12 34  1  0
 16 35  1  0
 20 36  1  0
 21 37  1  0
 23 38  1  0
M  END
>  <Energy>  (1171) 
6.7712663947023062

>  <compound_id>  (1171) 
19447

>  <target_id>  (1171) 
1

>  <reference_id>  (1171) 
35

>  <inspiration_ids>  (1171) 
[107, 35]

>  <energy_score>  (1171) 
0.9325506967462331

>  <distance_score>  (1171) 
2.3083892841371583

>  <path>  (1171) 
/opt/xchem-fragalysis-2/maxwin/BulkDock/SCRATCH/511021/C19447-P35/C19447-P35.minimised.mol

>  <scratch_subdir>  (1171) 
/opt/xchem-fragalysis-2/maxwin/BulkDock/SCRATCH/511021/C19447-P35

>  <fragmenstein_runtime>  (1171) 
5.0885326862335205

>  <fragmenstein_outcome>  (1171) 
too moved

>  <fragmenstein_mode>  (1171) 
expansion

>  <fragmenstein_error>  (1171) 


$$$$
C19448-P107
     RDKit          3D

 39 41  0  0  0  0  0  0  0  0999 V2000
  -10.0513  -26.3192   28.8026 O   0  0  0  0  0  0  0  0  0  0  0  0
  -10.4069  -26.7222   29.8681 C   0  0  0  0  0  0  0  0  0  0  0  0
  -10.0407  -26.3273   31.1738 N   0  0  0  0  0  0  0  0  0  0  0  0
   -9.0721  -25.3973   31.6274 C   0  0  0  0  0  0  0  0  0  0  0  0
   -9.5150  -24.5448   32.8144 C   0  0  0  0  0  0  0  0  0  0  0  0
   -9.3627  -25.3448   34.0822 C   0  0  0  0  0  0  0  0  0  0  0  0
  -10.4417  -26.1677   34.4332 O   0  0  0  0  0  0  0  0  0  0  0  0
  -10.7647  -23.9425   32.4917 N   0  0  0  0  0  0  0  0  0  0  0  0
  -12.0796  -24.2247   32.9428 C   0  0  0  0  0  0  0  0  0  0  0  0
  -12.4701  -24.9812   33.7643 O   0  0  0  0  0  0  0  0  0  0  0  0
  -12.9614  -23.4881   32.1480 C   0  0  0  0  0  0  0  0  0  0  0  0
  -13.8317  -22.4917   32.4673 C   0  0  0  0  0  0  0  0  0  0  0  0
  -13.8319  -21.6333   31.4128 N   0  0  0  0  0  0  0  0  0  0  0  0
  -12.9912  -22.1395   30.5180 C   0  0  0  0  0  0  0  0  0  0  0  0
  -12.3070  -21.6040   29.4580 N   0  0  0  0  0  0  0  0  0  0  0  0
  -11.8727  -22.4528   28.5746 C   0  0  0  0  0  0  0  0  0  0  0  0
  -12.0055  -23.9282   28.6526 C   0  0  0  0  0  0  0  0  0  0  0  0
  -12.4501  -24.3615   29.8384 C   0  0  0  0  0  0  0  0  0  0  0  0
  -12.8736  -23.4606   30.7871 N   0  0  0  0  0  0  0  0  0  0  0  0
  -11.4490  -27.7118   29.9072 C   0  0  0  0  0  0  0  0  0  0  0  0
  -12.4199  -27.9368   28.9568 C   0  0  0  0  0  0  0  0  0  0  0  0
  -13.1946  -29.0216   29.2863 N   0  0  0  0  0  0  0  0  0  0  0  0
  -12.6418  -29.5342   30.3645 C   0  0  0  0  0  0  0  0  0  0  0  0
  -11.6150  -28.7285   30.8220 N   0  0  0  0  0  0  0  0  0  0  0  0
  -10.4812  -26.9476   31.8416 H   0  0  0  0  0  0  0  0  0  0  0  0
   -8.1449  -25.9187   31.8366 H   0  0  0  0  0  0  0  0  0  0  0  0
   -8.9081  -24.7860   30.7522 H   0  0  0  0  0  0  0  0  0  0  0  0
   -8.8253  -23.7071   32.8820 H   0  0  0  0  0  0  0  0  0  0  0  0
   -8.4545  -25.9079   33.9237 H   0  0  0  0  0  0  0  0  0  0  0  0
   -9.0295  -24.8825   35.0028 H   0  0  0  0  0  0  0  0  0  0  0  0
  -11.2376  -25.5937   34.5571 H   0  0  0  0  0  0  0  0  0  0  0  0
  -10.7990  -23.1751   31.8328 H   0  0  0  0  0  0  0  0  0  0  0  0
  -14.2796  -22.2448   33.4198 H   0  0  0  0  0  0  0  0  0  0  0  0
  -11.3467  -22.0751   27.6842 H   0  0  0  0  0  0  0  0  0  0  0  0
  -11.6564  -24.5529   27.8443 H   0  0  0  0  0  0  0  0  0  0  0  0
  -12.5238  -25.3889   30.1303 H   0  0  0  0  0  0  0  0  0  0  0  0
  -12.6074  -27.3456   28.0696 H   0  0  0  0  0  0  0  0  0  0  0  0
  -12.9193  -30.4552   30.8626 H   0  0  0  0  0  0  0  0  0  0  0  0
  -10.9722  -28.9541   31.5714 H   0  0  0  0  0  0  0  0  0  0  0  0
  1  2  2  0
  2  3  1  0
  3  4  1  0
  4  5  1  0
  5  6  1  0
  6  7  1  0
  5  8  1  0
  8  9  1  0
  9 10  2  0
  9 11  1  0
 11 12  2  0
 12 13  1  0
 13 14  2  0
 14 15  1  0
 15 16  2  0
 16 17  1  0
 17 18  2  0
 18 19  1  0
  2 20  1  0
 20 21  2  0
 21 22  1  0
 22 23  2  0
 23 24  1  0
 19 11  1  0
 24 20  1  0
 19 14  1  0
  3 25  1  0
  4 26  1  0
  4 27  1  0
  5 28  1  0
  6 29  1  0
  6 30  1  0
  7 31  1  0
  8 32  1  0
 12 33  1  0
 16 34  1  0
 17 35  1  0
 18 36  1  0
 21 37  1  0
 23 38  1  0
 24 39  1  0
M  END
>  <Energy>  (1172) 
24.966037725467469

>  <compound_id>  (1172) 
19448

>  <target_id>  (1172) 
1

>  <reference_id>  (1172) 
107

>  <inspiration_ids>  (1172) 
[107, 35]

>  <energy_score>  (1172) 
4.280073662428606

>  <distance_score>  (1172) 
2.718855239918237

>  <path>  (1172) 
/opt/xchem-fragalysis-2/maxwin/BulkDock/SCRATCH/511021/C19448-P107/C19448-P107.minimised.mol

>  <scratch_subdir>  (1172) 
/opt/xchem-fragalysis-2/maxwin/BulkDock/SCRATCH/511021/C19448-P107

>  <fragmenstein_runtime>  (1172) 
10.271904945373535

>  <fragmenstein_outcome>  (1172) 
too moved

>  <fragmenstein_mode>  (1172) 
expansion

>  <fragmenstein_error>  (1172) 


$$$$
C19448-P35
     RDKit          3D

 39 41  0  0  0  0  0  0  0  0999 V2000
  -10.7650  -27.8134   28.6847 O   0  0  0  0  0  0  0  0  0  0  0  0
  -10.9891  -27.9577   29.8131 C   0  0  0  0  0  0  0  0  0  0  0  0
  -10.1749  -27.5709   31.0388 N   0  0  0  0  0  0  0  0  0  0  0  0
   -8.9721  -26.8507   31.1475 C   0  0  0  0  0  0  0  0  0  0  0  0
   -9.0292  -25.7438   32.1897 C   0  0  0  0  0  0  0  0  0  0  0  0
   -9.3366  -26.2629   33.5713 C   0  0  0  0  0  0  0  0  0  0  0  0
  -10.5748  -26.9764   33.5495 O   0  0  0  0  0  0  0  0  0  0  0  0
  -10.0303  -24.8148   31.7922 N   0  0  0  0  0  0  0  0  0  0  0  0
  -10.8182  -23.7898   32.6119 C   0  0  0  0  0  0  0  0  0  0  0  0
  -10.8323  -23.5914   33.7551 O   0  0  0  0  0  0  0  0  0  0  0  0
  -11.5707  -23.0208   31.6862 C   0  0  0  0  0  0  0  0  0  0  0  0
  -11.5988  -21.6579   31.6340 C   0  0  0  0  0  0  0  0  0  0  0  0
  -11.7483  -21.2698   30.3279 N   0  0  0  0  0  0  0  0  0  0  0  0
  -11.9410  -22.3643   29.6329 C   0  0  0  0  0  0  0  0  0  0  0  0
  -11.9489  -22.5410   28.2886 N   0  0  0  0  0  0  0  0  0  0  0  0
  -12.2154  -23.7367   27.8670 C   0  0  0  0  0  0  0  0  0  0  0  0
  -12.5462  -24.9121   28.7169 C   0  0  0  0  0  0  0  0  0  0  0  0
  -12.4706  -24.6943   30.0364 C   0  0  0  0  0  0  0  0  0  0  0  0
  -12.0989  -23.4353   30.4901 N   0  0  0  0  0  0  0  0  0  0  0  0
  -12.1138  -28.6138   30.3732 C   0  0  0  0  0  0  0  0  0  0  0  0
  -13.4326  -28.2671   30.3348 C   0  0  0  0  0  0  0  0  0  0  0  0
  -14.0870  -28.8405   31.3877 N   0  0  0  0  0  0  0  0  0  0  0  0
  -13.2046  -29.6080   31.9825 C   0  0  0  0  0  0  0  0  0  0  0  0
  -12.0179  -29.5963   31.3273 N   0  0  0  0  0  0  0  0  0  0  0  0
  -10.7102  -27.7732   31.8788 H   0  0  0  0  0  0  0  0  0  0  0  0
   -8.2655  -27.6203   31.4503 H   0  0  0  0  0  0  0  0  0  0  0  0
   -8.7732  -26.4313   30.1607 H   0  0  0  0  0  0  0  0  0  0  0  0
   -8.0909  -25.2032   32.1801 H   0  0  0  0  0  0  0  0  0  0  0  0
   -9.4042  -25.4606   34.3032 H   0  0  0  0  0  0  0  0  0  0  0  0
   -8.5335  -26.9013   33.9002 H   0  0  0  0  0  0  0  0  0  0  0  0
  -11.2470  -26.2809   33.3652 H   0  0  0  0  0  0  0  0  0  0  0  0
  -10.3182  -24.7676   30.8294 H   0  0  0  0  0  0  0  0  0  0  0  0
  -11.3058  -20.9581   32.4082 H   0  0  0  0  0  0  0  0  0  0  0  0
  -12.2235  -23.9272   26.7805 H   0  0  0  0  0  0  0  0  0  0  0  0
  -12.7962  -25.8529   28.2492 H   0  0  0  0  0  0  0  0  0  0  0  0
  -12.6459  -25.4568   30.7857 H   0  0  0  0  0  0  0  0  0  0  0  0
  -13.9279  -27.5447   29.7010 H   0  0  0  0  0  0  0  0  0  0  0  0
  -13.3783  -30.2194   32.8578 H   0  0  0  0  0  0  0  0  0  0  0  0
  -11.1883  -30.1185   31.5887 H   0  0  0  0  0  0  0  0  0  0  0  0
  1  2  2  0
  2  3  1  0
  3  4  1  0
  4  5  1  0
  5  6  1  0
  6  7  1  0
  5  8  1  0
  8  9  1  0
  9 10  2  0
  9 11  1  0
 11 12  2  0
 12 13  1  0
 13 14  2  0
 14 15  1  0
 15 16  2  0
 16 17  1  0
 17 18  2  0
 18 19  1  0
  2 20  1  0
 20 21  2  0
 21 22  1  0
 22 23  2  0
 23 24  1  0
 19 11  1  0
 24 20  1  0
 19 14  1  0
  3 25  1  0
  4 26  1  0
  4 27  1  0
  5 28  1  0
  6 29  1  0
  6 30  1  0
  7 31  1  0
  8 32  1  0
 12 33  1  0
 16 34  1  0
 17 35  1  0
 18 36  1  0
 21 37  1  0
 23 38  1  0
 24 39  1  0
M  END
>  <Energy>  (1173) 
29.058915932013868

>  <compound_id>  (1173) 
19448

>  <target_id>  (1173) 
1

>  <reference_id>  (1173) 
35

>  <inspiration_ids>  (1173) 
[107, 35]

>  <energy_score>  (1173) 
38.587865336499874

>  <distance_score>  (1173) 
2.816170213195746

>  <path>  (1173) 
/opt/xchem-fragalysis-2/maxwin/BulkDock/SCRATCH/511021/C19448-P35/C19448-P35.minimised.mol

>  <scratch_subdir>  (1173) 
/opt/xchem-fragalysis-2/maxwin/BulkDock/SCRATCH/511021/C19448-P35

>  <fragmenstein_runtime>  (1173) 
9.338674545288086

>  <fragmenstein_outcome>  (1173) 
too moved

>  <fragmenstein_mode>  (1173) 
expansion

>  <fragmenstein_error>  (1173) 


$$$$
C19449-P107
     RDKit          3D

 38 40  0  0  0  0  0  0  0  0999 V2000
  -10.3100  -28.8732   31.8218 C   0  0  0  0  0  0  0  0  0  0  0  0
  -10.8426  -27.5014   31.6773 C   0  0  0  0  0  0  0  0  0  0  0  0
  -10.2865  -26.3327   32.4387 C   0  0  0  0  0  0  0  0  0  0  0  0
  -11.0018  -25.1792   32.2020 N   0  0  0  0  0  0  0  0  0  0  0  0
  -10.6517  -23.7638   32.4425 C   0  0  0  0  0  0  0  0  0  0  0  0
   -9.7378  -23.3002   32.9502 O   0  0  0  0  0  0  0  0  0  0  0  0
  -11.6601  -23.0559   31.8149 C   0  0  0  0  0  0  0  0  0  0  0  0
  -12.7721  -22.3838   32.2076 C   0  0  0  0  0  0  0  0  0  0  0  0
  -13.3320  -21.8305   31.0968 N   0  0  0  0  0  0  0  0  0  0  0  0
  -12.4913  -22.0653   30.1045 C   0  0  0  0  0  0  0  0  0  0  0  0
  -12.3483  -21.5137   28.8759 N   0  0  0  0  0  0  0  0  0  0  0  0
  -11.6455  -22.1584   28.0033 C   0  0  0  0  0  0  0  0  0  0  0  0
  -10.8868  -23.3813   28.2366 C   0  0  0  0  0  0  0  0  0  0  0  0
  -10.9042  -23.7494   29.5157 C   0  0  0  0  0  0  0  0  0  0  0  0
  -11.6540  -23.0551   30.4554 N   0  0  0  0  0  0  0  0  0  0  0  0
  -10.9704  -27.2842   30.2956 N   0  0  0  0  0  0  0  0  0  0  0  0
  -11.8484  -26.3565   29.5410 C   0  0  0  0  0  0  0  0  0  0  0  0
  -12.6794  -25.6561   29.9051 O   0  0  0  0  0  0  0  0  0  0  0  0
  -11.5377  -26.4154   28.1818 C   0  0  0  0  0  0  0  0  0  0  0  0
  -10.3588  -26.6639   27.5467 C   0  0  0  0  0  0  0  0  0  0  0  0
  -10.5421  -26.4957   26.2211 N   0  0  0  0  0  0  0  0  0  0  0  0
  -11.7309  -25.9669   26.0865 C   0  0  0  0  0  0  0  0  0  0  0  0
  -12.4132  -25.9781   27.2466 N   0  0  0  0  0  0  0  0  0  0  0  0
  -11.0035  -29.5614   31.3288 H   0  0  0  0  0  0  0  0  0  0  0  0
   -9.3199  -28.8037   31.3786 H   0  0  0  0  0  0  0  0  0  0  0  0
  -10.1246  -29.3278   32.7923 H   0  0  0  0  0  0  0  0  0  0  0  0
  -11.8441  -27.5063   31.9758 H   0  0  0  0  0  0  0  0  0  0  0  0
  -10.3570  -26.4217   33.5262 H   0  0  0  0  0  0  0  0  0  0  0  0
   -9.2714  -26.0686   32.1135 H   0  0  0  0  0  0  0  0  0  0  0  0
  -11.9394  -25.2327   31.7930 H   0  0  0  0  0  0  0  0  0  0  0  0
  -13.1881  -22.2599   33.1983 H   0  0  0  0  0  0  0  0  0  0  0  0
  -11.5642  -21.7574   26.9869 H   0  0  0  0  0  0  0  0  0  0  0  0
  -10.2781  -23.8210   27.4643 H   0  0  0  0  0  0  0  0  0  0  0  0
  -10.2580  -24.5412   29.8741 H   0  0  0  0  0  0  0  0  0  0  0  0
  -10.2919  -27.6878   29.6682 H   0  0  0  0  0  0  0  0  0  0  0  0
   -9.3862  -26.9029   27.9552 H   0  0  0  0  0  0  0  0  0  0  0  0
  -12.1644  -25.5954   25.1734 H   0  0  0  0  0  0  0  0  0  0  0  0
  -13.3365  -25.6018   27.4254 H   0  0  0  0  0  0  0  0  0  0  0  0
  1  2  1  0
  2  3  1  0
  3  4  1  0
  4  5  1  0
  5  6  2  0
  5  7  1  0
  7  8  2  0
  8  9  1  0
  9 10  2  0
 10 11  1  0
 11 12  2  0
 12 13  1  0
 13 14  2  0
 14 15  1  0
  2 16  1  0
 16 17  1  0
 17 18  2  0
 17 19  1  0
 19 20  2  0
 20 21  1  0
 21 22  2  0
 22 23  1  0
 15  7  1  0
 23 19  1  0
 15 10  1  0
  1 24  1  0
  1 25  1  0
  1 26  1  0
  2 27  1  0
  3 28  1  0
  3 29  1  0
  4 30  1  0
  8 31  1  0
 12 32  1  0
 13 33  1  0
 14 34  1  0
 16 35  1  0
 20 36  1  0
 22 37  1  0
 23 38  1  0
M  END
>  <Energy>  (1174) 
32.363612227290908

>  <compound_id>  (1174) 
19449

>  <target_id>  (1174) 
1

>  <reference_id>  (1174) 
107

>  <inspiration_ids>  (1174) 
[107, 35]

>  <energy_score>  (1174) 
31.42742461120315

>  <distance_score>  (1174) 
3.2150000356662676

>  <path>  (1174) 
/opt/xchem-fragalysis-2/maxwin/BulkDock/SCRATCH/511021/C19449-P107/C19449-P107.minimised.mol

>  <scratch_subdir>  (1174) 
/opt/xchem-fragalysis-2/maxwin/BulkDock/SCRATCH/511021/C19449-P107

>  <fragmenstein_runtime>  (1174) 
5.181131362915039

>  <fragmenstein_outcome>  (1174) 
too moved

>  <fragmenstein_mode>  (1174) 
expansion

>  <fragmenstein_error>  (1174) 


$$$$
C19449-P35
     RDKit          3D

 38 40  0  0  0  0  0  0  0  0999 V2000
   -8.1003  -26.6941   32.8165 C   0  0  0  0  0  0  0  0  0  0  0  0
   -9.5087  -26.7716   33.1732 C   0  0  0  0  0  0  0  0  0  0  0  0
   -9.9514  -25.4680   33.6692 C   0  0  0  0  0  0  0  0  0  0  0  0
  -10.5238  -24.6109   32.7609 N   0  0  0  0  0  0  0  0  0  0  0  0
  -10.5637  -23.1117   32.7239 C   0  0  0  0  0  0  0  0  0  0  0  0
  -10.0584  -22.3316   33.4075 O   0  0  0  0  0  0  0  0  0  0  0  0
  -11.4701  -22.8334   31.6819 C   0  0  0  0  0  0  0  0  0  0  0  0
  -12.6043  -22.0880   31.7903 C   0  0  0  0  0  0  0  0  0  0  0  0
  -13.2563  -22.0946   30.6070 N   0  0  0  0  0  0  0  0  0  0  0  0
  -12.5382  -22.8084   29.7706 C   0  0  0  0  0  0  0  0  0  0  0  0
  -12.7221  -23.0171   28.4441 N   0  0  0  0  0  0  0  0  0  0  0  0
  -11.9599  -23.8795   27.8573 C   0  0  0  0  0  0  0  0  0  0  0  0
  -10.9077  -24.6757   28.5125 C   0  0  0  0  0  0  0  0  0  0  0  0
  -10.7106  -24.3815   29.8004 C   0  0  0  0  0  0  0  0  0  0  0  0
  -11.4981  -23.4075   30.4286 N   0  0  0  0  0  0  0  0  0  0  0  0
  -10.2115  -27.2259   32.0203 N   0  0  0  0  0  0  0  0  0  0  0  0
  -11.5722  -27.9013   31.8907 C   0  0  0  0  0  0  0  0  0  0  0  0
  -12.3125  -28.2691   32.7079 O   0  0  0  0  0  0  0  0  0  0  0  0
  -11.8301  -27.9167   30.4933 C   0  0  0  0  0  0  0  0  0  0  0  0
  -10.9657  -28.1740   29.4519 C   0  0  0  0  0  0  0  0  0  0  0  0
  -11.5152  -27.7796   28.2748 N   0  0  0  0  0  0  0  0  0  0  0  0
  -12.7248  -27.3694   28.5805 C   0  0  0  0  0  0  0  0  0  0  0  0
  -12.9752  -27.4652   29.9137 N   0  0  0  0  0  0  0  0  0  0  0  0
   -7.8547  -27.5855   32.2360 H   0  0  0  0  0  0  0  0  0  0  0  0
   -7.9405  -25.7852   32.2324 H   0  0  0  0  0  0  0  0  0  0  0  0
   -7.5028  -26.6864   33.7203 H   0  0  0  0  0  0  0  0  0  0  0  0
   -9.7063  -27.4034   34.0191 H   0  0  0  0  0  0  0  0  0  0  0  0
  -10.8655  -25.8285   34.0421 H   0  0  0  0  0  0  0  0  0  0  0  0
   -9.3660  -24.9734   34.4373 H   0  0  0  0  0  0  0  0  0  0  0  0
  -11.1490  -24.9803   32.0613 H   0  0  0  0  0  0  0  0  0  0  0  0
  -12.9802  -21.5674   32.6626 H   0  0  0  0  0  0  0  0  0  0  0  0
  -12.0879  -24.0602   26.7770 H   0  0  0  0  0  0  0  0  0  0  0  0
  -10.3628  -25.4188   27.9521 H   0  0  0  0  0  0  0  0  0  0  0  0
   -9.9139  -24.8532   30.3593 H   0  0  0  0  0  0  0  0  0  0  0  0
   -9.8015  -27.1151   31.1026 H   0  0  0  0  0  0  0  0  0  0  0  0
   -9.9492  -28.5454   29.4993 H   0  0  0  0  0  0  0  0  0  0  0  0
  -13.4613  -26.9917   27.8820 H   0  0  0  0  0  0  0  0  0  0  0  0
  -13.8112  -27.1541   30.3936 H   0  0  0  0  0  0  0  0  0  0  0  0
  1  2  1  0
  2  3  1  0
  3  4  1  0
  4  5  1  0
  5  6  2  0
  5  7  1  0
  7  8  2  0
  8  9  1  0
  9 10  2  0
 10 11  1  0
 11 12  2  0
 12 13  1  0
 13 14  2  0
 14 15  1  0
  2 16  1  0
 16 17  1  0
 17 18  2  0
 17 19  1  0
 19 20  2  0
 20 21  1  0
 21 22  2  0
 22 23  1  0
 15  7  1  0
 23 19  1  0
 15 10  1  0
  1 24  1  0
  1 25  1  0
  1 26  1  0
  2 27  1  0
  3 28  1  0
  3 29  1  0
  4 30  1  0
  8 31  1  0
 12 32  1  0
 13 33  1  0
 14 34  1  0
 16 35  1  0
 20 36  1  0
 22 37  1  0
 23 38  1  0
M  END
>  <Energy>  (1175) 
17.905852903744091

>  <compound_id>  (1175) 
19449

>  <target_id>  (1175) 
1

>  <reference_id>  (1175) 
35

>  <inspiration_ids>  (1175) 
[107, 35]

>  <energy_score>  (1175) 
16.969665287656994

>  <distance_score>  (1175) 
2.458757531378772

>  <path>  (1175) 
/opt/xchem-fragalysis-2/maxwin/BulkDock/SCRATCH/511021/C19449-P35/C19449-P35.minimised.mol

>  <scratch_subdir>  (1175) 
/opt/xchem-fragalysis-2/maxwin/BulkDock/SCRATCH/511021/C19449-P35

>  <fragmenstein_runtime>  (1175) 
6.365014314651489

>  <fragmenstein_outcome>  (1175) 
too moved

>  <fragmenstein_mode>  (1175) 
expansion

>  <fragmenstein_error>  (1175) 


$$$$
C47270-P107
     RDKit          3D

 35 37  0  0  0  0  0  0  0  0999 V2000
  -14.3559  -21.5346   34.0205 O   0  0  0  0  0  0  0  0  0  0  0  0
  -13.2684  -21.1594   33.8152 C   0  0  0  0  0  0  0  0  0  0  0  0
  -12.5180  -19.9120   34.3513 N   0  0  0  0  0  0  0  0  0  0  0  0
  -12.9260  -18.9062   35.3399 C   0  0  0  0  0  0  0  0  0  0  0  0
  -14.4532  -18.7379   35.3145 C   0  0  0  0  0  0  0  0  0  0  0  0
  -14.9930  -18.6789   33.9981 O   0  0  0  0  0  0  0  0  0  0  0  0
  -12.3104  -17.4985   35.3056 C   0  0  0  0  0  0  0  0  0  0  0  0
  -10.9016  -17.3560   35.7801 C   0  0  0  0  0  0  0  0  0  0  0  0
   -9.7821  -16.9765   35.0657 C   0  0  0  0  0  0  0  0  0  0  0  0
   -8.7718  -16.8414   35.9741 N   0  0  0  0  0  0  0  0  0  0  0  0
   -9.3181  -17.0317   37.2104 C   0  0  0  0  0  0  0  0  0  0  0  0
  -10.5992  -17.3363   37.1368 N   0  0  0  0  0  0  0  0  0  0  0  0
  -12.4614  -21.9559   32.8668 C   0  0  0  0  0  0  0  0  0  0  0  0
  -12.3904  -23.3387   32.8156 C   0  0  0  0  0  0  0  0  0  0  0  0
  -11.9775  -23.6363   31.5438 N   0  0  0  0  0  0  0  0  0  0  0  0
  -11.8003  -24.8577   30.9126 C   0  0  0  0  0  0  0  0  0  0  0  0
  -11.5460  -24.8732   29.5993 C   0  0  0  0  0  0  0  0  0  0  0  0
  -11.3251  -26.2835   28.6710 Cl  0  0  0  0  0  0  0  0  0  0  0  0
  -11.5000  -23.5388   28.9334 C   0  0  0  0  0  0  0  0  0  0  0  0
  -11.6077  -22.3843   29.5242 N   0  0  0  0  0  0  0  0  0  0  0  0
  -11.8138  -22.4266   30.8759 C   0  0  0  0  0  0  0  0  0  0  0  0
  -11.9057  -21.4269   31.7264 N   0  0  0  0  0  0  0  0  0  0  0  0
  -11.6082  -19.8444   33.9029 H   0  0  0  0  0  0  0  0  0  0  0  0
  -12.6630  -19.3177   36.3112 H   0  0  0  0  0  0  0  0  0  0  0  0
  -14.7577  -17.8165   35.8239 H   0  0  0  0  0  0  0  0  0  0  0  0
  -15.0040  -19.5127   35.8364 H   0  0  0  0  0  0  0  0  0  0  0  0
  -15.1783  -19.6145   33.7628 H   0  0  0  0  0  0  0  0  0  0  0  0
  -12.8796  -16.8689   36.0074 H   0  0  0  0  0  0  0  0  0  0  0  0
  -12.4835  -17.0125   34.3470 H   0  0  0  0  0  0  0  0  0  0  0  0
   -9.6103  -16.7591   34.0237 H   0  0  0  0  0  0  0  0  0  0  0  0
   -7.8167  -16.5926   35.7528 H   0  0  0  0  0  0  0  0  0  0  0  0
   -8.7360  -16.9440   38.1174 H   0  0  0  0  0  0  0  0  0  0  0  0
  -12.7451  -24.0983   33.4995 H   0  0  0  0  0  0  0  0  0  0  0  0
  -11.9068  -25.7474   31.5176 H   0  0  0  0  0  0  0  0  0  0  0  0
  -11.3443  -23.5540   27.8413 H   0  0  0  0  0  0  0  0  0  0  0  0
  1  2  2  0
  2  3  1  0
  3  4  1  0
  4  5  1  0
  5  6  1  0
  4  7  1  0
  7  8  1  0
  8  9  2  0
  9 10  1  0
 10 11  1  0
 11 12  2  0
  2 13  1  0
 13 14  2  0
 14 15  1  0
 15 16  1  0
 16 17  2  0
 17 18  1  0
 17 19  1  0
 19 20  2  0
 20 21  1  0
 21 22  2  0
 12  8  1  0
 22 13  1  0
 21 15  1  0
  3 23  1  0
  4 24  1  0
  5 25  1  0
  5 26  1  0
  6 27  1  0
  7 28  1  0
  7 29  1  0
  9 30  1  0
 10 31  1  0
 11 32  1  0
 14 33  1  0
 16 34  1  0
 19 35  1  0
M  END
>  <Energy>  (1176) 
82.470418914015482

>  <compound_id>  (1176) 
47270

>  <target_id>  (1176) 
1

>  <reference_id>  (1176) 
107

>  <inspiration_ids>  (1176) 
[107, 35]

>  <energy_score>  (1176) 
-4.61369357087051

>  <distance_score>  (1176) 
2.0717861837467417

>  <path>  (1176) 
/opt/xchem-fragalysis-2/maxwin/BulkDock/SCRATCH/511021/C47270-P107/C47270-P107.minimised.mol

>  <scratch_subdir>  (1176) 
/opt/xchem-fragalysis-2/maxwin/BulkDock/SCRATCH/511021/C47270-P107

>  <fragmenstein_runtime>  (1176) 
4.351191759109497

>  <fragmenstein_outcome>  (1176) 
too moved

>  <fragmenstein_mode>  (1176) 
expansion

>  <fragmenstein_error>  (1176) 


$$$$
C47270-P35
     RDKit          3D

 35 37  0  0  0  0  0  0  0  0999 V2000
  -13.4561  -21.6858   33.7048 O   0  0  0  0  0  0  0  0  0  0  0  0
  -12.5224  -21.7446   33.0227 C   0  0  0  0  0  0  0  0  0  0  0  0
  -11.0871  -21.3173   33.2778 N   0  0  0  0  0  0  0  0  0  0  0  0
  -10.4601  -20.8071   34.4691 C   0  0  0  0  0  0  0  0  0  0  0  0
  -10.3866  -21.9389   35.5035 C   0  0  0  0  0  0  0  0  0  0  0  0
  -11.6493  -22.4102   35.9610 O   0  0  0  0  0  0  0  0  0  0  0  0
  -11.1595  -19.5623   35.0392 C   0  0  0  0  0  0  0  0  0  0  0  0
  -10.1546  -18.5111   35.3246 C   0  0  0  0  0  0  0  0  0  0  0  0
  -10.1914  -17.1735   35.0194 C   0  0  0  0  0  0  0  0  0  0  0  0
   -8.8968  -16.7535   35.1129 N   0  0  0  0  0  0  0  0  0  0  0  0
   -8.1761  -17.8017   35.5905 C   0  0  0  0  0  0  0  0  0  0  0  0
   -8.9274  -18.8481   35.8285 N   0  0  0  0  0  0  0  0  0  0  0  0
  -12.5338  -22.3804   31.7220 C   0  0  0  0  0  0  0  0  0  0  0  0
  -13.0542  -23.6223   31.4468 C   0  0  0  0  0  0  0  0  0  0  0  0
  -12.5348  -23.9537   30.2340 N   0  0  0  0  0  0  0  0  0  0  0  0
  -12.5698  -25.1557   29.5508 C   0  0  0  0  0  0  0  0  0  0  0  0
  -12.0017  -25.2179   28.3422 C   0  0  0  0  0  0  0  0  0  0  0  0
  -11.9520  -26.6123   27.3645 Cl  0  0  0  0  0  0  0  0  0  0  0  0
  -11.4258  -23.9409   27.8325 C   0  0  0  0  0  0  0  0  0  0  0  0
  -11.3609  -22.8179   28.4809 N   0  0  0  0  0  0  0  0  0  0  0  0
  -11.8843  -22.8285   29.7360 C   0  0  0  0  0  0  0  0  0  0  0  0
  -11.8075  -21.8974   30.6574 N   0  0  0  0  0  0  0  0  0  0  0  0
  -10.5411  -21.4386   32.4274 H   0  0  0  0  0  0  0  0  0  0  0  0
   -9.4361  -20.5810   34.1478 H   0  0  0  0  0  0  0  0  0  0  0  0
   -9.8637  -22.8013   35.0752 H   0  0  0  0  0  0  0  0  0  0  0  0
   -9.8179  -21.6166   36.3817 H   0  0  0  0  0  0  0  0  0  0  0  0
  -12.3492  -22.1486   35.3304 H   0  0  0  0  0  0  0  0  0  0  0  0
  -11.6992  -19.7801   35.9611 H   0  0  0  0  0  0  0  0  0  0  0  0
  -11.8983  -19.1732   34.3306 H   0  0  0  0  0  0  0  0  0  0  0  0
  -10.9570  -16.5414   34.5977 H   0  0  0  0  0  0  0  0  0  0  0  0
   -8.5389  -15.8598   34.7877 H   0  0  0  0  0  0  0  0  0  0  0  0
   -7.1109  -17.7629   35.7082 H   0  0  0  0  0  0  0  0  0  0  0  0
  -13.6484  -24.2993   32.0412 H   0  0  0  0  0  0  0  0  0  0  0  0
  -13.0575  -25.9916   30.0345 H   0  0  0  0  0  0  0  0  0  0  0  0
  -11.0233  -23.9770   26.8067 H   0  0  0  0  0  0  0  0  0  0  0  0
  1  2  2  0
  2  3  1  0
  3  4  1  0
  4  5  1  0
  5  6  1  0
  4  7  1  0
  7  8  1  0
  8  9  2  0
  9 10  1  0
 10 11  1  0
 11 12  2  0
  2 13  1  0
 13 14  2  0
 14 15  1  0
 15 16  1  0
 16 17  2  0
 17 18  1  0
 17 19  1  0
 19 20  2  0
 20 21  1  0
 21 22  2  0
 12  8  1  0
 22 13  1  0
 21 15  1  0
  3 23  1  0
  4 24  1  0
  5 25  1  0
  5 26  1  0
  6 27  1  0
  7 28  1  0
  7 29  1  0
  9 30  1  0
 10 31  1  0
 11 32  1  0
 14 33  1  0
 16 34  1  0
 19 35  1  0
M  END
>  <Energy>  (1177) 
70.220264954725522

>  <compound_id>  (1177) 
47270

>  <target_id>  (1177) 
1

>  <reference_id>  (1177) 
35

>  <inspiration_ids>  (1177) 
[107, 35]

>  <energy_score>  (1177) 
-16.863847530159546

>  <distance_score>  (1177) 
2.0043634491323123

>  <path>  (1177) 
/opt/xchem-fragalysis-2/maxwin/BulkDock/SCRATCH/511021/C47270-P35/C47270-P35.minimised.mol

>  <scratch_subdir>  (1177) 
/opt/xchem-fragalysis-2/maxwin/BulkDock/SCRATCH/511021/C47270-P35

>  <fragmenstein_runtime>  (1177) 
3.677323579788208

>  <fragmenstein_outcome>  (1177) 
too moved

>  <fragmenstein_mode>  (1177) 
expansion

>  <fragmenstein_error>  (1177) 


$$$$
C19450-P107
     RDKit          3D

 38 40  0  0  0  0  0  0  0  0999 V2000
  -13.0864  -20.5536   33.9953 C   0  0  0  0  0  0  0  0  0  0  0  0
  -14.0568  -21.2440   33.0103 C   0  0  0  0  0  0  0  0  0  0  0  0
  -14.8147  -22.4517   33.6503 C   0  0  0  0  0  0  0  0  0  0  0  0
  -13.9946  -23.5042   33.1996 N   0  0  0  0  0  0  0  0  0  0  0  0
  -12.6461  -23.8028   33.4680 C   0  0  0  0  0  0  0  0  0  0  0  0
  -11.8712  -23.2952   34.2089 O   0  0  0  0  0  0  0  0  0  0  0  0
  -12.1347  -24.8444   32.6012 C   0  0  0  0  0  0  0  0  0  0  0  0
  -12.6460  -25.0725   31.2229 C   0  0  0  0  0  0  0  0  0  0  0  0
  -12.2599  -25.9463   30.3498 N   0  0  0  0  0  0  0  0  0  0  0  0
  -11.1320  -26.5493   30.7228 C   0  0  0  0  0  0  0  0  0  0  0  0
  -10.5465  -27.5972   30.2411 N   0  0  0  0  0  0  0  0  0  0  0  0
   -9.3107  -27.4896   30.7748 C   0  0  0  0  0  0  0  0  0  0  0  0
   -9.1006  -26.2871   31.4161 C   0  0  0  0  0  0  0  0  0  0  0  0
  -10.3592  -25.9729   31.7083 N   0  0  0  0  0  0  0  0  0  0  0  0
  -10.8500  -25.1846   32.6980 C   0  0  0  0  0  0  0  0  0  0  0  0
  -13.4008  -21.6808   31.6982 N   0  0  0  0  0  0  0  0  0  0  0  0
  -12.0009  -21.7716   31.3160 C   0  0  0  0  0  0  0  0  0  0  0  0
  -11.0128  -21.4533   31.9032 O   0  0  0  0  0  0  0  0  0  0  0  0
  -11.8400  -22.2528   29.9468 C   0  0  0  0  0  0  0  0  0  0  0  0
  -11.2520  -23.3980   29.4436 C   0  0  0  0  0  0  0  0  0  0  0  0
  -11.2630  -23.4893   28.0945 N   0  0  0  0  0  0  0  0  0  0  0  0
  -11.6688  -22.3124   27.7322 C   0  0  0  0  0  0  0  0  0  0  0  0
  -11.9335  -21.5126   28.8034 N   0  0  0  0  0  0  0  0  0  0  0  0
  -12.4401  -21.2428   34.5113 H   0  0  0  0  0  0  0  0  0  0  0  0
  -12.3555  -19.8713   33.5645 H   0  0  0  0  0  0  0  0  0  0  0  0
  -13.6563  -19.9854   34.7355 H   0  0  0  0  0  0  0  0  0  0  0  0
  -14.8273  -20.5178   32.7249 H   0  0  0  0  0  0  0  0  0  0  0  0
  -14.9009  -22.4142   34.7289 H   0  0  0  0  0  0  0  0  0  0  0  0
  -15.8031  -22.5725   33.1979 H   0  0  0  0  0  0  0  0  0  0  0  0
  -14.3697  -24.2051   32.5651 H   0  0  0  0  0  0  0  0  0  0  0  0
  -13.3986  -24.3584   30.8683 H   0  0  0  0  0  0  0  0  0  0  0  0
   -8.5563  -28.2448   30.6786 H   0  0  0  0  0  0  0  0  0  0  0  0
   -8.2481  -25.8595   31.9206 H   0  0  0  0  0  0  0  0  0  0  0  0
  -10.1719  -24.8773   33.4785 H   0  0  0  0  0  0  0  0  0  0  0  0
  -13.9695  -22.1248   30.9846 H   0  0  0  0  0  0  0  0  0  0  0  0
  -10.7422  -24.1585   29.9956 H   0  0  0  0  0  0  0  0  0  0  0  0
  -11.7362  -21.9735   26.7128 H   0  0  0  0  0  0  0  0  0  0  0  0
  -12.0856  -20.5173   28.7328 H   0  0  0  0  0  0  0  0  0  0  0  0
  1  2  1  0
  2  3  1  0
  3  4  1  0
  4  5  1  0
  5  6  2  0
  5  7  1  0
  7  8  1  0
  8  9  2  0
  9 10  1  0
 10 11  2  0
 11 12  1  0
 12 13  2  0
 13 14  1  0
 14 15  1  0
  2 16  1  0
 16 17  1  0
 17 18  2  0
 17 19  1  0
 19 20  2  0
 20 21  1  0
 21 22  2  0
 22 23  1  0
 15  7  2  0
 23 19  1  0
 14 10  1  0
  1 24  1  0
  1 25  1  0
  1 26  1  0
  2 27  1  0
  3 28  1  0
  3 29  1  0
  4 30  1  0
  8 31  1  0
 12 32  1  0
 13 33  1  0
 15 34  1  0
 16 35  1  0
 20 36  1  0
 22 37  1  0
 23 38  1  0
M  END
>  <Energy>  (1178) 
63.887832421023958

>  <compound_id>  (1178) 
19450

>  <target_id>  (1178) 
1

>  <reference_id>  (1178) 
107

>  <inspiration_ids>  (1178) 
[107, 35]

>  <energy_score>  (1178) 
53.59320826308458

>  <distance_score>  (1178) 
2.685677675834833

>  <path>  (1178) 
/opt/xchem-fragalysis-2/maxwin/BulkDock/SCRATCH/511021/C19450-P107/C19450-P107.minimised.mol

>  <scratch_subdir>  (1178) 
/opt/xchem-fragalysis-2/maxwin/BulkDock/SCRATCH/511021/C19450-P107

>  <fragmenstein_runtime>  (1178) 
11.71086859703064

>  <fragmenstein_outcome>  (1178) 
too moved

>  <fragmenstein_mode>  (1178) 
expansion

>  <fragmenstein_error>  (1178) 


$$$$
C19450-P35
     RDKit          3D

 38 40  0  0  0  0  0  0  0  0999 V2000
  -11.5338  -20.3810   34.4654 C   0  0  0  0  0  0  0  0  0  0  0  0
  -10.6001  -20.8588   33.3812 C   0  0  0  0  0  0  0  0  0  0  0  0
   -9.7118  -22.0103   33.9122 C   0  0  0  0  0  0  0  0  0  0  0  0
   -9.9902  -23.2410   33.1859 N   0  0  0  0  0  0  0  0  0  0  0  0
   -9.7213  -24.6812   33.5536 C   0  0  0  0  0  0  0  0  0  0  0  0
   -9.3030  -25.1402   34.5267 O   0  0  0  0  0  0  0  0  0  0  0  0
  -10.1103  -25.5867   32.4690 C   0  0  0  0  0  0  0  0  0  0  0  0
  -10.5617  -26.9339   32.8610 C   0  0  0  0  0  0  0  0  0  0  0  0
  -10.9448  -27.8976   32.0924 N   0  0  0  0  0  0  0  0  0  0  0  0
  -10.8163  -27.6562   30.7707 C   0  0  0  0  0  0  0  0  0  0  0  0
  -11.0725  -28.4604   29.7724 N   0  0  0  0  0  0  0  0  0  0  0  0
  -10.7252  -27.7740   28.6487 C   0  0  0  0  0  0  0  0  0  0  0  0
  -10.2998  -26.5104   28.9526 C   0  0  0  0  0  0  0  0  0  0  0  0
  -10.3424  -26.4425   30.3091 N   0  0  0  0  0  0  0  0  0  0  0  0
  -10.0004  -25.4080   31.1503 C   0  0  0  0  0  0  0  0  0  0  0  0
  -11.2417  -21.4118   32.2031 N   0  0  0  0  0  0  0  0  0  0  0  0
  -12.5983  -22.0981   32.0402 C   0  0  0  0  0  0  0  0  0  0  0  0
  -13.4548  -22.2631   32.8056 O   0  0  0  0  0  0  0  0  0  0  0  0
  -12.6795  -22.6700   30.7187 C   0  0  0  0  0  0  0  0  0  0  0  0
  -11.9607  -22.5342   29.5482 C   0  0  0  0  0  0  0  0  0  0  0  0
  -12.1728  -23.5944   28.7191 N   0  0  0  0  0  0  0  0  0  0  0  0
  -13.0768  -24.3294   29.3180 C   0  0  0  0  0  0  0  0  0  0  0  0
  -13.4707  -23.7713   30.4906 N   0  0  0  0  0  0  0  0  0  0  0  0
  -12.1534  -21.1956   34.8552 H   0  0  0  0  0  0  0  0  0  0  0  0
  -10.9692  -19.9646   35.3067 H   0  0  0  0  0  0  0  0  0  0  0  0
  -12.2055  -19.6006   34.1017 H   0  0  0  0  0  0  0  0  0  0  0  0
   -9.9652  -20.0294   33.0651 H   0  0  0  0  0  0  0  0  0  0  0  0
   -9.8029  -22.1920   34.9870 H   0  0  0  0  0  0  0  0  0  0  0  0
   -8.6750  -21.7619   33.6839 H   0  0  0  0  0  0  0  0  0  0  0  0
  -10.4337  -23.2029   32.2833 H   0  0  0  0  0  0  0  0  0  0  0  0
  -10.5699  -27.1231   33.9390 H   0  0  0  0  0  0  0  0  0  0  0  0
  -10.8369  -28.2076   27.6653 H   0  0  0  0  0  0  0  0  0  0  0  0
  -10.0153  -25.6747   28.3374 H   0  0  0  0  0  0  0  0  0  0  0  0
   -9.6211  -24.5277   30.6796 H   0  0  0  0  0  0  0  0  0  0  0  0
  -10.7757  -21.3735   31.3118 H   0  0  0  0  0  0  0  0  0  0  0  0
  -11.2477  -21.7698   29.2692 H   0  0  0  0  0  0  0  0  0  0  0  0
  -13.4812  -25.2657   28.9532 H   0  0  0  0  0  0  0  0  0  0  0  0
  -14.1110  -24.1727   31.1676 H   0  0  0  0  0  0  0  0  0  0  0  0
  1  2  1  0
  2  3  1  0
  3  4  1  0
  4  5  1  0
  5  6  2  0
  5  7  1  0
  7  8  1  0
  8  9  2  0
  9 10  1  0
 10 11  2  0
 11 12  1  0
 12 13  2  0
 13 14  1  0
 14 15  1  0
  2 16  1  0
 16 17  1  0
 17 18  2  0
 17 19  1  0
 19 20  2  0
 20 21  1  0
 21 22  2  0
 22 23  1  0
 15  7  2  0
 23 19  1  0
 14 10  1  0
  1 24  1  0
  1 25  1  0
  1 26  1  0
  2 27  1  0
  3 28  1  0
  3 29  1  0
  4 30  1  0
  8 31  1  0
 12 32  1  0
 13 33  1  0
 15 34  1  0
 16 35  1  0
 20 36  1  0
 22 37  1  0
 23 38  1  0
M  END
>  <Energy>  (1179) 
13.126004839777972

>  <compound_id>  (1179) 
19450

>  <target_id>  (1179) 
1

>  <reference_id>  (1179) 
35

>  <inspiration_ids>  (1179) 
[107, 35]

>  <energy_score>  (1179) 
1.7675900435690437

>  <distance_score>  (1179) 
2.548788957717212

>  <path>  (1179) 
/opt/xchem-fragalysis-2/maxwin/BulkDock/SCRATCH/511021/C19450-P35/C19450-P35.minimised.mol

>  <scratch_subdir>  (1179) 
/opt/xchem-fragalysis-2/maxwin/BulkDock/SCRATCH/511021/C19450-P35

>  <fragmenstein_runtime>  (1179) 
7.4257566928863525

>  <fragmenstein_outcome>  (1179) 
too moved

>  <fragmenstein_mode>  (1179) 
expansion

>  <fragmenstein_error>  (1179) 


$$$$
C19451-P107
     RDKit          3D

 41 43  0  0  0  0  0  0  0  0999 V2000
  -17.1706  -21.5128   33.7907 C   0  0  0  0  0  0  0  0  0  0  0  0
  -16.0019  -21.0626   34.6703 C   0  0  0  0  0  0  0  0  0  0  0  0
  -14.9212  -20.3685   33.8577 C   0  0  0  0  0  0  0  0  0  0  0  0
  -14.0105  -19.4099   34.6733 C   0  0  0  0  0  0  0  0  0  0  0  0
  -14.7143  -18.3237   35.3200 N   0  0  0  0  0  0  0  0  0  0  0  0
  -14.2020  -17.2229   36.2623 C   0  0  0  0  0  0  0  0  0  0  0  0
  -13.1200  -16.9685   36.6072 O   0  0  0  0  0  0  0  0  0  0  0  0
  -15.3014  -16.3797   36.6856 C   0  0  0  0  0  0  0  0  0  0  0  0
  -16.6362  -16.6290   36.9340 C   0  0  0  0  0  0  0  0  0  0  0  0
  -17.3035  -15.4820   37.3019 N   0  0  0  0  0  0  0  0  0  0  0  0
  -16.3797  -14.5476   37.3273 C   0  0  0  0  0  0  0  0  0  0  0  0
  -15.1582  -15.0395   36.9697 N   0  0  0  0  0  0  0  0  0  0  0  0
  -14.1849  -21.3236   33.0568 N   0  0  0  0  0  0  0  0  0  0  0  0
  -13.7992  -22.7741   33.3452 C   0  0  0  0  0  0  0  0  0  0  0  0
  -14.0745  -23.4631   34.2384 O   0  0  0  0  0  0  0  0  0  0  0  0
  -12.9018  -23.1668   32.2601 C   0  0  0  0  0  0  0  0  0  0  0  0
  -12.1149  -24.2915   32.1798 C   0  0  0  0  0  0  0  0  0  0  0  0
  -11.6804  -24.3209   30.8888 N   0  0  0  0  0  0  0  0  0  0  0  0
  -10.9912  -25.3125   30.2081 C   0  0  0  0  0  0  0  0  0  0  0  0
  -10.7305  -25.1449   28.9045 C   0  0  0  0  0  0  0  0  0  0  0  0
  -11.2119  -23.8564   28.3237 C   0  0  0  0  0  0  0  0  0  0  0  0
  -11.8284  -22.9044   28.9531 N   0  0  0  0  0  0  0  0  0  0  0  0
  -12.0891  -23.1392   30.2718 C   0  0  0  0  0  0  0  0  0  0  0  0
  -12.7459  -22.3832   31.1210 N   0  0  0  0  0  0  0  0  0  0  0  0
  -17.9396  -21.9914   34.4056 H   0  0  0  0  0  0  0  0  0  0  0  0
  -17.6303  -20.6595   33.2816 H   0  0  0  0  0  0  0  0  0  0  0  0
  -16.8481  -22.2344   33.0338 H   0  0  0  0  0  0  0  0  0  0  0  0
  -15.6527  -21.9494   35.1941 H   0  0  0  0  0  0  0  0  0  0  0  0
  -16.4129  -20.3843   35.4265 H   0  0  0  0  0  0  0  0  0  0  0  0
  -15.4333  -19.7362   33.1221 H   0  0  0  0  0  0  0  0  0  0  0  0
  -13.2789  -18.9094   34.0411 H   0  0  0  0  0  0  0  0  0  0  0  0
  -13.3644  -19.8977   35.3965 H   0  0  0  0  0  0  0  0  0  0  0  0
  -15.7095  -18.2071   35.1739 H   0  0  0  0  0  0  0  0  0  0  0  0
  -17.1631  -17.5722   36.8633 H   0  0  0  0  0  0  0  0  0  0  0  0
  -16.5273  -13.5075   37.5876 H   0  0  0  0  0  0  0  0  0  0  0  0
  -14.2971  -14.5108   36.8931 H   0  0  0  0  0  0  0  0  0  0  0  0
  -13.7042  -21.0067   32.2305 H   0  0  0  0  0  0  0  0  0  0  0  0
  -11.9505  -25.0936   32.8803 H   0  0  0  0  0  0  0  0  0  0  0  0
  -10.7029  -26.1935   30.7693 H   0  0  0  0  0  0  0  0  0  0  0  0
  -10.2030  -25.8569   28.2870 H   0  0  0  0  0  0  0  0  0  0  0  0
  -10.9970  -23.7251   27.2504 H   0  0  0  0  0  0  0  0  0  0  0  0
  1  2  1  0
  2  3  1  0
  3  4  1  0
  4  5  1  0
  5  6  1  0
  6  7  2  0
  6  8  1  0
  8  9  2  0
  9 10  1  0
 10 11  2  0
 11 12  1  0
  3 13  1  0
 13 14  1  0
 14 15  2  0
 14 16  1  0
 16 17  2  0
 17 18  1  0
 18 19  1  0
 19 20  2  0
 20 21  1  0
 21 22  2  0
 22 23  1  0
 23 24  2  0
 12  8  1  0
 24 16  1  0
 23 18  1  0
  1 25  1  0
  1 26  1  0
  1 27  1  0
  2 28  1  0
  2 29  1  0
  3 30  1  0
  4 31  1  0
  4 32  1  0
  5 33  1  0
  9 34  1  0
 11 35  1  0
 12 36  1  0
 13 37  1  0
 17 38  1  0
 19 39  1  0
 20 40  1  0
 21 41  1  0
M  END
>  <Energy>  (1180) 
32.848559853656731

>  <compound_id>  (1180) 
19451

>  <target_id>  (1180) 
1

>  <reference_id>  (1180) 
107

>  <inspiration_ids>  (1180) 
[107, 35]

>  <energy_score>  (1180) 
-16.901638452455856

>  <distance_score>  (1180) 
2.315314032493722

>  <path>  (1180) 
/opt/xchem-fragalysis-2/maxwin/BulkDock/SCRATCH/511021/C19451-P107/C19451-P107.minimised.mol

>  <scratch_subdir>  (1180) 
/opt/xchem-fragalysis-2/maxwin/BulkDock/SCRATCH/511021/C19451-P107

>  <fragmenstein_runtime>  (1180) 
6.067672252655029

>  <fragmenstein_outcome>  (1180) 
too moved

>  <fragmenstein_mode>  (1180) 
expansion

>  <fragmenstein_error>  (1180) 


$$$$
C19451-P35
     RDKit          3D

 41 43  0  0  0  0  0  0  0  0999 V2000
  -13.2719  -21.0260   34.1239 C   0  0  0  0  0  0  0  0  0  0  0  0
  -12.0501  -20.5135   34.8976 C   0  0  0  0  0  0  0  0  0  0  0  0
  -10.8003  -20.3300   34.0418 C   0  0  0  0  0  0  0  0  0  0  0  0
   -9.5216  -20.3061   34.8583 C   0  0  0  0  0  0  0  0  0  0  0  0
   -9.5379  -19.3389   35.9200 N   0  0  0  0  0  0  0  0  0  0  0  0
   -9.0508  -19.4414   37.3616 C   0  0  0  0  0  0  0  0  0  0  0  0
   -8.4876  -20.2966   37.9061 O   0  0  0  0  0  0  0  0  0  0  0  0
   -9.4105  -18.2428   38.0732 C   0  0  0  0  0  0  0  0  0  0  0  0
  -10.6224  -17.6133   38.2559 C   0  0  0  0  0  0  0  0  0  0  0  0
  -10.4973  -16.5305   39.0913 N   0  0  0  0  0  0  0  0  0  0  0  0
   -9.2208  -16.4904   39.4042 C   0  0  0  0  0  0  0  0  0  0  0  0
   -8.5232  -17.4993   38.8065 N   0  0  0  0  0  0  0  0  0  0  0  0
  -10.8475  -21.3731   33.0782 N   0  0  0  0  0  0  0  0  0  0  0  0
  -10.6139  -22.8698   33.2277 C   0  0  0  0  0  0  0  0  0  0  0  0
  -10.2688  -23.4896   34.1455 O   0  0  0  0  0  0  0  0  0  0  0  0
  -11.0182  -23.4431   31.9609 C   0  0  0  0  0  0  0  0  0  0  0  0
  -10.9301  -24.7470   31.5478 C   0  0  0  0  0  0  0  0  0  0  0  0
  -11.3472  -24.7215   30.2506 N   0  0  0  0  0  0  0  0  0  0  0  0
  -11.3200  -25.7284   29.3040 C   0  0  0  0  0  0  0  0  0  0  0  0
  -11.6836  -25.4443   28.0469 C   0  0  0  0  0  0  0  0  0  0  0  0
  -12.1067  -24.0337   27.8080 C   0  0  0  0  0  0  0  0  0  0  0  0
  -12.1647  -23.0867   28.6912 N   0  0  0  0  0  0  0  0  0  0  0  0
  -11.7608  -23.4258   29.9448 C   0  0  0  0  0  0  0  0  0  0  0  0
  -11.5895  -22.6401   30.9781 N   0  0  0  0  0  0  0  0  0  0  0  0
  -13.3323  -22.1108   34.2225 H   0  0  0  0  0  0  0  0  0  0  0  0
  -14.2034  -20.5839   34.4834 H   0  0  0  0  0  0  0  0  0  0  0  0
  -13.2257  -20.8530   33.0535 H   0  0  0  0  0  0  0  0  0  0  0  0
  -12.2831  -19.5515   35.3680 H   0  0  0  0  0  0  0  0  0  0  0  0
  -11.8413  -21.2384   35.6902 H   0  0  0  0  0  0  0  0  0  0  0  0
  -10.8875  -19.3903   33.5088 H   0  0  0  0  0  0  0  0  0  0  0  0
   -8.6639  -20.0822   34.2181 H   0  0  0  0  0  0  0  0  0  0  0  0
   -9.3539  -21.2789   35.3260 H   0  0  0  0  0  0  0  0  0  0  0  0
   -9.9211  -18.4137   35.7575 H   0  0  0  0  0  0  0  0  0  0  0  0
  -11.5828  -17.9023   37.8507 H   0  0  0  0  0  0  0  0  0  0  0  0
   -8.7421  -15.7572   40.0389 H   0  0  0  0  0  0  0  0  0  0  0  0
   -7.5222  -17.6577   38.8336 H   0  0  0  0  0  0  0  0  0  0  0  0
  -11.0689  -21.1593   32.1052 H   0  0  0  0  0  0  0  0  0  0  0  0
  -10.5588  -25.6343   32.0389 H   0  0  0  0  0  0  0  0  0  0  0  0
  -10.9786  -26.7063   29.6183 H   0  0  0  0  0  0  0  0  0  0  0  0
  -11.6874  -26.1515   27.2311 H   0  0  0  0  0  0  0  0  0  0  0  0
  -12.4027  -23.8080   26.7692 H   0  0  0  0  0  0  0  0  0  0  0  0
  1  2  1  0
  2  3  1  0
  3  4  1  0
  4  5  1  0
  5  6  1  0
  6  7  2  0
  6  8  1  0
  8  9  2  0
  9 10  1  0
 10 11  2  0
 11 12  1  0
  3 13  1  0
 13 14  1  0
 14 15  2  0
 14 16  1  0
 16 17  2  0
 17 18  1  0
 18 19  1  0
 19 20  2  0
 20 21  1  0
 21 22  2  0
 22 23  1  0
 23 24  2  0
 12  8  1  0
 24 16  1  0
 23 18  1  0
  1 25  1  0
  1 26  1  0
  1 27  1  0
  2 28  1  0
  2 29  1  0
  3 30  1  0
  4 31  1  0
  4 32  1  0
  5 33  1  0
  9 34  1  0
 11 35  1  0
 12 36  1  0
 13 37  1  0
 17 38  1  0
 19 39  1  0
 20 40  1  0
 21 41  1  0
M  END
>  <Energy>  (1181) 
38.032319998862221

>  <compound_id>  (1181) 
19451

>  <target_id>  (1181) 
1

>  <reference_id>  (1181) 
35

>  <inspiration_ids>  (1181) 
[107, 35]

>  <energy_score>  (1181) 
-11.717878307253102

>  <distance_score>  (1181) 
1.4535365174433

>  <path>  (1181) 
/opt/xchem-fragalysis-2/maxwin/BulkDock/SCRATCH/511021/C19451-P35/C19451-P35.minimised.mol

>  <scratch_subdir>  (1181) 
/opt/xchem-fragalysis-2/maxwin/BulkDock/SCRATCH/511021/C19451-P35

>  <fragmenstein_runtime>  (1181) 
6.306068181991577

>  <fragmenstein_outcome>  (1181) 
too moved

>  <fragmenstein_mode>  (1181) 
expansion

>  <fragmenstein_error>  (1181) 


$$$$
C19452-P107
     RDKit          3D

 40 42  0  0  0  0  0  0  0  0999 V2000
  -16.7900  -19.4297   34.7015 C   0  0  0  0  0  0  0  0  0  0  0  0
  -17.1964  -20.4697   33.6585 C   0  0  0  0  0  0  0  0  0  0  0  0
  -18.2123  -19.9600   32.6189 C   0  0  0  0  0  0  0  0  0  0  0  0
  -19.5251  -19.5345   33.1805 C   0  0  0  0  0  0  0  0  0  0  0  0
  -20.3189  -20.0118   34.2018 C   0  0  0  0  0  0  0  0  0  0  0  0
  -21.4665  -19.2719   34.3204 N   0  0  0  0  0  0  0  0  0  0  0  0
  -21.3900  -18.3615   33.3777 C   0  0  0  0  0  0  0  0  0  0  0  0
  -20.2394  -18.4840   32.6537 N   0  0  0  0  0  0  0  0  0  0  0  0
  -15.9431  -20.9364   32.9017 C   0  0  0  0  0  0  0  0  0  0  0  0
  -15.6959  -20.5932   31.8126 O   0  0  0  0  0  0  0  0  0  0  0  0
  -15.2161  -21.9490   33.8264 N   0  0  0  0  0  0  0  0  0  0  0  0
  -14.0936  -22.8155   33.5661 C   0  0  0  0  0  0  0  0  0  0  0  0
  -12.6981  -22.1729   33.4469 C   0  0  0  0  0  0  0  0  0  0  0  0
  -12.0549  -22.7429   32.2424 C   0  0  0  0  0  0  0  0  0  0  0  0
  -11.4884  -23.9905   32.0998 C   0  0  0  0  0  0  0  0  0  0  0  0
  -11.4006  -24.1760   30.7502 N   0  0  0  0  0  0  0  0  0  0  0  0
  -10.9575  -25.2767   30.0342 C   0  0  0  0  0  0  0  0  0  0  0  0
  -10.9546  -25.2204   28.6958 C   0  0  0  0  0  0  0  0  0  0  0  0
  -11.4528  -23.9385   28.1150 C   0  0  0  0  0  0  0  0  0  0  0  0
  -11.8711  -22.9014   28.7700 N   0  0  0  0  0  0  0  0  0  0  0  0
  -11.8463  -23.0090   30.1299 C   0  0  0  0  0  0  0  0  0  0  0  0
  -12.1881  -22.1174   31.0312 N   0  0  0  0  0  0  0  0  0  0  0  0
  -16.2394  -19.9005   35.5221 H   0  0  0  0  0  0  0  0  0  0  0  0
  -16.1260  -18.6727   34.2747 H   0  0  0  0  0  0  0  0  0  0  0  0
  -17.6545  -18.9259   35.1425 H   0  0  0  0  0  0  0  0  0  0  0  0
  -17.6397  -21.3344   34.1692 H   0  0  0  0  0  0  0  0  0  0  0  0
  -17.7780  -19.1402   32.0346 H   0  0  0  0  0  0  0  0  0  0  0  0
  -18.4098  -20.7618   31.8936 H   0  0  0  0  0  0  0  0  0  0  0  0
  -20.1268  -20.8490   34.8603 H   0  0  0  0  0  0  0  0  0  0  0  0
  -22.1285  -17.6005   33.1649 H   0  0  0  0  0  0  0  0  0  0  0  0
  -19.9863  -17.9279   31.8404 H   0  0  0  0  0  0  0  0  0  0  0  0
  -15.6523  -21.9473   34.7382 H   0  0  0  0  0  0  0  0  0  0  0  0
  -14.3531  -23.2972   32.6245 H   0  0  0  0  0  0  0  0  0  0  0  0
  -14.0960  -23.5942   34.3336 H   0  0  0  0  0  0  0  0  0  0  0  0
  -12.0904  -22.4261   34.3134 H   0  0  0  0  0  0  0  0  0  0  0  0
  -12.7600  -21.0837   33.3816 H   0  0  0  0  0  0  0  0  0  0  0  0
  -11.2656  -24.7737   32.8098 H   0  0  0  0  0  0  0  0  0  0  0  0
  -10.6183  -26.1361   30.6000 H   0  0  0  0  0  0  0  0  0  0  0  0
  -10.6170  -26.0154   28.0482 H   0  0  0  0  0  0  0  0  0  0  0  0
  -11.4529  -23.8989   27.0127 H   0  0  0  0  0  0  0  0  0  0  0  0
  1  2  1  0
  2  3  1  0
  3  4  1  0
  4  5  2  0
  5  6  1  0
  6  7  2  0
  7  8  1  0
  2  9  1  0
  9 10  2  0
  9 11  1  0
 11 12  1  0
 12 13  1  0
 13 14  1  0
 14 15  2  0
 15 16  1  0
 16 17  1  0
 17 18  2  0
 18 19  1  0
 19 20  2  0
 20 21  1  0
 21 22  2  0
  8  4  1  0
 22 14  1  0
 21 16  1  0
  1 23  1  0
  1 24  1  0
  1 25  1  0
  2 26  1  0
  3 27  1  0
  3 28  1  0
  5 29  1  0
  7 30  1  0
  8 31  1  0
 11 32  1  0
 12 33  1  0
 12 34  1  0
 13 35  1  0
 13 36  1  0
 15 37  1  0
 17 38  1  0
 18 39  1  0
 19 40  1  0
M  END
>  <Energy>  (1182) 
43.767452803750778

>  <compound_id>  (1182) 
19452

>  <target_id>  (1182) 
1

>  <reference_id>  (1182) 
107

>  <inspiration_ids>  (1182) 
[107, 35]

>  <energy_score>  (1182) 
-3.711768833682356

>  <distance_score>  (1182) 
2.2195220137027643

>  <path>  (1182) 
/opt/xchem-fragalysis-2/maxwin/BulkDock/SCRATCH/511021/C19452-P107/C19452-P107.minimised.mol

>  <scratch_subdir>  (1182) 
/opt/xchem-fragalysis-2/maxwin/BulkDock/SCRATCH/511021/C19452-P107

>  <fragmenstein_runtime>  (1182) 
6.661319255828857

>  <fragmenstein_outcome>  (1182) 
too moved

>  <fragmenstein_mode>  (1182) 
expansion

>  <fragmenstein_error>  (1182) 


$$$$
C19452-P35
     RDKit          3D

 40 42  0  0  0  0  0  0  0  0999 V2000
  -11.4294  -17.5085   35.7592 C   0  0  0  0  0  0  0  0  0  0  0  0
  -10.5082  -18.3907   36.6060 C   0  0  0  0  0  0  0  0  0  0  0  0
   -9.7167  -17.5940   37.6570 C   0  0  0  0  0  0  0  0  0  0  0  0
  -10.4796  -17.4740   38.9362 C   0  0  0  0  0  0  0  0  0  0  0  0
  -10.2689  -18.0185   40.1839 C   0  0  0  0  0  0  0  0  0  0  0  0
  -11.2920  -17.6952   41.0398 N   0  0  0  0  0  0  0  0  0  0  0  0
  -12.0891  -16.9192   40.3422 C   0  0  0  0  0  0  0  0  0  0  0  0
  -11.6312  -16.7447   39.0683 N   0  0  0  0  0  0  0  0  0  0  0  0
   -9.5639  -19.1670   35.6864 C   0  0  0  0  0  0  0  0  0  0  0  0
   -8.4083  -19.0258   35.6553 O   0  0  0  0  0  0  0  0  0  0  0  0
  -10.4789  -20.1246   34.8861 N   0  0  0  0  0  0  0  0  0  0  0  0
  -10.1707  -21.0327   33.8214 C   0  0  0  0  0  0  0  0  0  0  0  0
  -11.0725  -22.2522   33.9231 C   0  0  0  0  0  0  0  0  0  0  0  0
  -11.3063  -22.8885   32.6072 C   0  0  0  0  0  0  0  0  0  0  0  0
  -10.9628  -24.1564   32.2017 C   0  0  0  0  0  0  0  0  0  0  0  0
  -11.3119  -24.2177   30.8838 N   0  0  0  0  0  0  0  0  0  0  0  0
  -11.0880  -25.2257   29.9599 C   0  0  0  0  0  0  0  0  0  0  0  0
  -11.4110  -25.0150   28.6775 C   0  0  0  0  0  0  0  0  0  0  0  0
  -12.0027  -23.6770   28.3878 C   0  0  0  0  0  0  0  0  0  0  0  0
  -12.2484  -22.7361   29.2473 N   0  0  0  0  0  0  0  0  0  0  0  0
  -11.8859  -22.9958   30.5375 C   0  0  0  0  0  0  0  0  0  0  0  0
  -11.9166  -22.1966   31.5836 N   0  0  0  0  0  0  0  0  0  0  0  0
  -12.0656  -18.0835   35.0805 H   0  0  0  0  0  0  0  0  0  0  0  0
  -12.1179  -16.9352   36.3782 H   0  0  0  0  0  0  0  0  0  0  0  0
  -10.8420  -16.8290   35.1338 H   0  0  0  0  0  0  0  0  0  0  0  0
  -11.1212  -19.1325   37.1262 H   0  0  0  0  0  0  0  0  0  0  0  0
   -8.7688  -18.0954   37.8910 H   0  0  0  0  0  0  0  0  0  0  0  0
   -9.4489  -16.6013   37.2792 H   0  0  0  0  0  0  0  0  0  0  0  0
   -9.4414  -18.6434   40.4978 H   0  0  0  0  0  0  0  0  0  0  0  0
  -13.0001  -16.4600   40.7008 H   0  0  0  0  0  0  0  0  0  0  0  0
  -12.0723  -16.1960   38.3399 H   0  0  0  0  0  0  0  0  0  0  0  0
  -11.4459  -19.9274   35.1027 H   0  0  0  0  0  0  0  0  0  0  0  0
   -9.1116  -21.2982   33.8625 H   0  0  0  0  0  0  0  0  0  0  0  0
  -10.3342  -20.4785   32.8931 H   0  0  0  0  0  0  0  0  0  0  0  0
  -10.6389  -22.9657   34.6339 H   0  0  0  0  0  0  0  0  0  0  0  0
  -12.0538  -21.9744   34.3305 H   0  0  0  0  0  0  0  0  0  0  0  0
  -10.4732  -24.9730   32.7119 H   0  0  0  0  0  0  0  0  0  0  0  0
  -10.6295  -26.1388   30.3170 H   0  0  0  0  0  0  0  0  0  0  0  0
  -11.2629  -25.7252   27.8779 H   0  0  0  0  0  0  0  0  0  0  0  0
  -12.2544  -23.5026   27.3278 H   0  0  0  0  0  0  0  0  0  0  0  0
  1  2  1  0
  2  3  1  0
  3  4  1  0
  4  5  2  0
  5  6  1  0
  6  7  2  0
  7  8  1  0
  2  9  1  0
  9 10  2  0
  9 11  1  0
 11 12  1  0
 12 13  1  0
 13 14  1  0
 14 15  2  0
 15 16  1  0
 16 17  1  0
 17 18  2  0
 18 19  1  0
 19 20  2  0
 20 21  1  0
 21 22  2  0
  8  4  1  0
 22 14  1  0
 21 16  1  0
  1 23  1  0
  1 24  1  0
  1 25  1  0
  2 26  1  0
  3 27  1  0
  3 28  1  0
  5 29  1  0
  7 30  1  0
  8 31  1  0
 11 32  1  0
 12 33  1  0
 12 34  1  0
 13 35  1  0
 13 36  1  0
 15 37  1  0
 17 38  1  0
 18 39  1  0
 19 40  1  0
M  END
>  <Energy>  (1183) 
36.873276229709816

>  <compound_id>  (1183) 
19452

>  <target_id>  (1183) 
1

>  <reference_id>  (1183) 
35

>  <inspiration_ids>  (1183) 
[107, 35]

>  <energy_score>  (1183) 
-10.605945407725358

>  <distance_score>  (1183) 
1.136867347801057

>  <path>  (1183) 
/opt/xchem-fragalysis-2/maxwin/BulkDock/SCRATCH/511021/C19452-P35/C19452-P35.minimised.mol

>  <scratch_subdir>  (1183) 
/opt/xchem-fragalysis-2/maxwin/BulkDock/SCRATCH/511021/C19452-P35

>  <fragmenstein_runtime>  (1183) 
9.127035140991211

>  <fragmenstein_outcome>  (1183) 
too moved

>  <fragmenstein_mode>  (1183) 
expansion

>  <fragmenstein_error>  (1183) 


$$$$
C47275-P107
     RDKit          3D

 37 39  0  0  0  0  0  0  0  0999 V2000
  -15.4011  -26.2774   26.7549 C   0  0  0  0  0  0  0  0  0  0  0  0
  -14.3896  -25.6025   27.5138 O   0  0  0  0  0  0  0  0  0  0  0  0
  -13.2019  -25.5033   26.8512 C   0  0  0  0  0  0  0  0  0  0  0  0
  -12.9991  -25.9619   25.7295 O   0  0  0  0  0  0  0  0  0  0  0  0
  -12.1514  -24.6989   27.6147 C   0  0  0  0  0  0  0  0  0  0  0  0
  -10.8387  -25.5116   27.6483 C   0  0  0  0  0  0  0  0  0  0  0  0
  -10.6667  -26.2494   28.9442 C   0  0  0  0  0  0  0  0  0  0  0  0
   -9.8330  -25.9272   29.9922 C   0  0  0  0  0  0  0  0  0  0  0  0
  -10.0566  -26.8655   30.9538 N   0  0  0  0  0  0  0  0  0  0  0  0
  -11.0830  -27.6388   30.5055 C   0  0  0  0  0  0  0  0  0  0  0  0
  -11.5043  -27.2758   29.3118 N   0  0  0  0  0  0  0  0  0  0  0  0
  -12.4306  -24.3077   28.9796 N   0  0  0  0  0  0  0  0  0  0  0  0
  -12.0130  -23.1799   29.7281 C   0  0  0  0  0  0  0  0  0  0  0  0
  -11.3886  -22.2168   29.4032 O   0  0  0  0  0  0  0  0  0  0  0  0
  -12.3628  -23.3540   31.1116 C   0  0  0  0  0  0  0  0  0  0  0  0
  -12.5850  -24.4725   31.8921 C   0  0  0  0  0  0  0  0  0  0  0  0
  -13.2007  -24.1511   33.0742 N   0  0  0  0  0  0  0  0  0  0  0  0
  -13.3078  -22.8467   33.0218 C   0  0  0  0  0  0  0  0  0  0  0  0
  -13.9419  -21.9485   33.8158 N   0  0  0  0  0  0  0  0  0  0  0  0
  -13.2671  -20.8588   33.9964 C   0  0  0  0  0  0  0  0  0  0  0  0
  -11.9558  -20.5342   33.3862 C   0  0  0  0  0  0  0  0  0  0  0  0
  -11.6354  -21.2867   32.3243 C   0  0  0  0  0  0  0  0  0  0  0  0
  -12.3904  -22.4070   32.0867 N   0  0  0  0  0  0  0  0  0  0  0  0
  -15.1057  -27.3121   26.5590 H   0  0  0  0  0  0  0  0  0  0  0  0
  -15.6025  -25.7422   25.8216 H   0  0  0  0  0  0  0  0  0  0  0  0
  -16.3191  -26.2915   27.3485 H   0  0  0  0  0  0  0  0  0  0  0  0
  -11.9954  -23.7789   27.0380 H   0  0  0  0  0  0  0  0  0  0  0  0
  -10.0026  -24.8073   27.5496 H   0  0  0  0  0  0  0  0  0  0  0  0
  -10.7555  -26.2170   26.8148 H   0  0  0  0  0  0  0  0  0  0  0  0
   -9.0999  -25.1524   30.1259 H   0  0  0  0  0  0  0  0  0  0  0  0
   -9.5457  -27.0027   31.8250 H   0  0  0  0  0  0  0  0  0  0  0  0
  -11.4355  -28.4793   31.0831 H   0  0  0  0  0  0  0  0  0  0  0  0
  -13.0197  -24.8960   29.5673 H   0  0  0  0  0  0  0  0  0  0  0  0
  -12.4364  -25.5042   31.6208 H   0  0  0  0  0  0  0  0  0  0  0  0
  -13.6886  -20.0610   34.6296 H   0  0  0  0  0  0  0  0  0  0  0  0
  -11.4338  -19.6497   33.7173 H   0  0  0  0  0  0  0  0  0  0  0  0
  -10.7876  -21.1038   31.6822 H   0  0  0  0  0  0  0  0  0  0  0  0
  1  2  1  0
  2  3  1  0
  3  4  2  0
  3  5  1  0
  5  6  1  0
  6  7  1  0
  7  8  2  0
  8  9  1  0
  9 10  1  0
 10 11  2  0
  5 12  1  0
 12 13  1  0
 13 14  2  0
 13 15  1  0
 15 16  2  0
 16 17  1  0
 17 18  2  0
 18 19  1  0
 19 20  2  0
 20 21  1  0
 21 22  2  0
 22 23  1  0
 11  7  1  0
 23 15  1  0
 23 18  1  0
  1 24  1  0
  1 25  1  0
  1 26  1  0
  5 27  1  0
  6 28  1  0
  6 29  1  0
  8 30  1  0
  9 31  1  0
 10 32  1  0
 12 33  1  0
 16 34  1  0
 20 35  1  0
 21 36  1  0
 22 37  1  0
M  END
>  <Energy>  (1184) 
25.332776782223899

>  <compound_id>  (1184) 
47275

>  <target_id>  (1184) 
1

>  <reference_id>  (1184) 
107

>  <inspiration_ids>  (1184) 
[107, 35]

>  <energy_score>  (1184) 
-7.567533589908265

>  <distance_score>  (1184) 
4.093174042439849

>  <path>  (1184) 
/opt/xchem-fragalysis-2/maxwin/BulkDock/SCRATCH/511021/C47275-P107/C47275-P107.minimised.mol

>  <scratch_subdir>  (1184) 
/opt/xchem-fragalysis-2/maxwin/BulkDock/SCRATCH/511021/C47275-P107

>  <fragmenstein_runtime>  (1184) 
6.635029077529907

>  <fragmenstein_outcome>  (1184) 
too moved

>  <fragmenstein_mode>  (1184) 
expansion

>  <fragmenstein_error>  (1184) 


$$$$
C47275-P35
     RDKit          3D

 37 39  0  0  0  0  0  0  0  0999 V2000
  -14.7168  -27.2806   26.8533 C   0  0  0  0  0  0  0  0  0  0  0  0
  -13.5342  -26.8744   27.5436 O   0  0  0  0  0  0  0  0  0  0  0  0
  -12.5495  -27.8114   27.6230 C   0  0  0  0  0  0  0  0  0  0  0  0
  -12.6531  -28.9596   27.2019 O   0  0  0  0  0  0  0  0  0  0  0  0
  -11.3136  -27.3168   28.3731 C   0  0  0  0  0  0  0  0  0  0  0  0
  -11.3037  -28.1240   29.6850 C   0  0  0  0  0  0  0  0  0  0  0  0
  -10.4303  -27.5328   30.7290 C   0  0  0  0  0  0  0  0  0  0  0  0
   -9.2353  -27.9528   31.2410 C   0  0  0  0  0  0  0  0  0  0  0  0
   -8.8837  -27.0106   32.1732 N   0  0  0  0  0  0  0  0  0  0  0  0
   -9.8561  -26.0584   32.1821 C   0  0  0  0  0  0  0  0  0  0  0  0
  -10.8000  -26.3400   31.3134 N   0  0  0  0  0  0  0  0  0  0  0  0
  -11.3723  -25.9163   28.7182 N   0  0  0  0  0  0  0  0  0  0  0  0
  -11.5083  -24.6808   27.8328 C   0  0  0  0  0  0  0  0  0  0  0  0
  -11.5185  -24.5808   26.6758 O   0  0  0  0  0  0  0  0  0  0  0  0
  -11.7233  -23.5634   28.7236 C   0  0  0  0  0  0  0  0  0  0  0  0
  -11.3017  -22.2595   28.6449 C   0  0  0  0  0  0  0  0  0  0  0  0
  -11.5604  -21.5480   29.7797 N   0  0  0  0  0  0  0  0  0  0  0  0
  -12.2366  -22.3715   30.5397 C   0  0  0  0  0  0  0  0  0  0  0  0
  -12.7736  -22.1231   31.7550 N   0  0  0  0  0  0  0  0  0  0  0  0
  -13.6088  -23.0149   32.1823 C   0  0  0  0  0  0  0  0  0  0  0  0
  -14.0107  -24.2650   31.4957 C   0  0  0  0  0  0  0  0  0  0  0  0
  -13.3867  -24.4978   30.3443 C   0  0  0  0  0  0  0  0  0  0  0  0
  -12.4751  -23.5673   29.8761 N   0  0  0  0  0  0  0  0  0  0  0  0
  -15.4939  -26.5374   27.0527 H   0  0  0  0  0  0  0  0  0  0  0  0
  -14.5290  -27.3036   25.7768 H   0  0  0  0  0  0  0  0  0  0  0  0
  -15.0727  -28.2523   27.2094 H   0  0  0  0  0  0  0  0  0  0  0  0
  -10.4228  -27.4715   27.7576 H   0  0  0  0  0  0  0  0  0  0  0  0
  -11.0368  -29.1578   29.4982 H   0  0  0  0  0  0  0  0  0  0  0  0
  -12.3200  -28.1619   30.1052 H   0  0  0  0  0  0  0  0  0  0  0  0
   -8.6128  -28.8163   31.0593 H   0  0  0  0  0  0  0  0  0  0  0  0
   -8.0462  -27.0416   32.7475 H   0  0  0  0  0  0  0  0  0  0  0  0
   -9.8265  -25.1970   32.8368 H   0  0  0  0  0  0  0  0  0  0  0  0
  -11.3197  -25.6293   29.6980 H   0  0  0  0  0  0  0  0  0  0  0  0
  -10.7708  -21.8125   27.8253 H   0  0  0  0  0  0  0  0  0  0  0  0
  -14.0934  -22.8497   33.1586 H   0  0  0  0  0  0  0  0  0  0  0  0
  -14.7516  -24.9077   31.9440 H   0  0  0  0  0  0  0  0  0  0  0  0
  -13.6036  -25.3724   29.7497 H   0  0  0  0  0  0  0  0  0  0  0  0
  1  2  1  0
  2  3  1  0
  3  4  2  0
  3  5  1  0
  5  6  1  0
  6  7  1  0
  7  8  2  0
  8  9  1  0
  9 10  1  0
 10 11  2  0
  5 12  1  0
 12 13  1  0
 13 14  2  0
 13 15  1  0
 15 16  2  0
 16 17  1  0
 17 18  2  0
 18 19  1  0
 19 20  2  0
 20 21  1  0
 21 22  2  0
 22 23  1  0
 11  7  1  0
 23 15  1  0
 23 18  1  0
  1 24  1  0
  1 25  1  0
  1 26  1  0
  5 27  1  0
  6 28  1  0
  6 29  1  0
  8 30  1  0
  9 31  1  0
 10 32  1  0
 12 33  1  0
 16 34  1  0
 20 35  1  0
 21 36  1  0
 22 37  1  0
M  END
>  <Energy>  (1185) 
21.269712553507155

>  <compound_id>  (1185) 
47275

>  <target_id>  (1185) 
1

>  <reference_id>  (1185) 
35

>  <inspiration_ids>  (1185) 
[107, 35]

>  <energy_score>  (1185) 
-26.79821466497833

>  <distance_score>  (1185) 
3.619650905406874

>  <path>  (1185) 
/opt/xchem-fragalysis-2/maxwin/BulkDock/SCRATCH/511021/C47275-P35/C47275-P35.minimised.mol

>  <scratch_subdir>  (1185) 
/opt/xchem-fragalysis-2/maxwin/BulkDock/SCRATCH/511021/C47275-P35

>  <fragmenstein_runtime>  (1185) 
6.081303119659424

>  <fragmenstein_outcome>  (1185) 
too moved

>  <fragmenstein_mode>  (1185) 
expansion

>  <fragmenstein_error>  (1185) 


$$$$
C8697-P107
     RDKit          3D

 32 35  0  0  0  0  0  0  0  0999 V2000
  -12.0270  -22.3693   27.6624 O   0  0  0  0  0  0  0  0  0  0  0  0
  -11.7960  -23.2336   28.4098 C   0  0  0  0  0  0  0  0  0  0  0  0
  -11.9212  -23.0799   29.9380 C   0  0  0  0  0  0  0  0  0  0  0  0
  -11.2862  -24.1014   30.8330 C   0  0  0  0  0  0  0  0  0  0  0  0
  -11.7917  -24.2180   32.0579 C   0  0  0  0  0  0  0  0  0  0  0  0
  -12.7647  -23.3279   32.4293 N   0  0  0  0  0  0  0  0  0  0  0  0
  -13.4969  -23.2678   33.5664 C   0  0  0  0  0  0  0  0  0  0  0  0
  -14.2525  -22.1323   33.4510 C   0  0  0  0  0  0  0  0  0  0  0  0
  -14.0131  -21.5027   32.2675 N   0  0  0  0  0  0  0  0  0  0  0  0
  -13.1592  -22.2711   31.6262 C   0  0  0  0  0  0  0  0  0  0  0  0
  -12.7277  -22.1528   30.3428 N   0  0  0  0  0  0  0  0  0  0  0  0
  -11.4487  -24.6416   28.1602 N   0  0  0  0  0  0  0  0  0  0  0  0
   -9.9205  -24.8354   28.0374 C   0  0  0  0  0  0  0  0  0  0  0  0
  -10.3073  -26.2402   27.6503 C   0  0  0  0  0  0  0  0  0  0  0  0
  -10.7416  -27.0173   28.9370 C   0  0  0  0  0  0  0  0  0  0  0  0
  -11.9196  -27.6831   29.0892 C   0  0  0  0  0  0  0  0  0  0  0  0
  -12.0033  -28.1930   30.3433 N   0  0  0  0  0  0  0  0  0  0  0  0
  -10.9472  -27.7621   30.9850 C   0  0  0  0  0  0  0  0  0  0  0  0
  -10.1224  -27.0848   30.1547 N   0  0  0  0  0  0  0  0  0  0  0  0
  -11.3820  -25.4186   26.8898 C   0  0  0  0  0  0  0  0  0  0  0  0
  -10.4880  -24.7294   30.5247 H   0  0  0  0  0  0  0  0  0  0  0  0
  -11.4749  -24.9539   32.7837 H   0  0  0  0  0  0  0  0  0  0  0  0
  -13.4567  -24.0321   34.3183 H   0  0  0  0  0  0  0  0  0  0  0  0
  -14.9808  -21.7514   34.1531 H   0  0  0  0  0  0  0  0  0  0  0  0
   -9.4950  -24.1569   27.2927 H   0  0  0  0  0  0  0  0  0  0  0  0
   -9.3344  -24.7459   28.9470 H   0  0  0  0  0  0  0  0  0  0  0  0
   -9.6186  -26.8093   27.0352 H   0  0  0  0  0  0  0  0  0  0  0  0
  -12.7006  -27.8334   28.3579 H   0  0  0  0  0  0  0  0  0  0  0  0
  -10.7204  -27.9400   32.0201 H   0  0  0  0  0  0  0  0  0  0  0  0
   -9.2635  -26.6657   30.4641 H   0  0  0  0  0  0  0  0  0  0  0  0
  -11.0952  -24.8410   26.0018 H   0  0  0  0  0  0  0  0  0  0  0  0
  -12.3138  -25.9498   26.6748 H   0  0  0  0  0  0  0  0  0  0  0  0
  1  2  2  0
  2  3  1  0
  3  4  1  0
  4  5  2  0
  5  6  1  0
  6  7  1  0
  7  8  2  0
  8  9  1  0
  9 10  2  0
 10 11  1  0
  2 12  1  0
 12 13  1  0
 13 14  1  0
 14 15  1  0
 15 16  2  0
 16 17  1  0
 17 18  2  0
 18 19  1  0
 14 20  1  0
 11  3  2  0
 20 12  1  0
 10  6  1  0
 19 15  1  0
  4 21  1  0
  5 22  1  0
  7 23  1  0
  8 24  1  0
 13 25  1  0
 13 26  1  0
 14 27  1  0
 16 28  1  0
 18 29  1  0
 19 30  1  0
 20 31  1  0
 20 32  1  0
M  END
>  <Energy>  (1186) 
129.78466734847143

>  <compound_id>  (1186) 
8697

>  <target_id>  (1186) 
1

>  <reference_id>  (1186) 
107

>  <inspiration_ids>  (1186) 
[107, 35]

>  <energy_score>  (1186) 
7.061977130396372

>  <distance_score>  (1186) 
2.3556107842280314

>  <path>  (1186) 
/opt/xchem-fragalysis-2/maxwin/BulkDock/SCRATCH/511021/C8697-P107/C8697-P107.minimised.mol

>  <scratch_subdir>  (1186) 
/opt/xchem-fragalysis-2/maxwin/BulkDock/SCRATCH/511021/C8697-P107

>  <fragmenstein_runtime>  (1186) 
2.700767993927002

>  <fragmenstein_outcome>  (1186) 
too moved

>  <fragmenstein_mode>  (1186) 
expansion

>  <fragmenstein_error>  (1186) 


$$$$
C8697-P35
     RDKit          3D

 32 35  0  0  0  0  0  0  0  0999 V2000
  -14.6626  -25.1262   28.4374 O   0  0  0  0  0  0  0  0  0  0  0  0
  -13.6700  -25.4615   28.9555 C   0  0  0  0  0  0  0  0  0  0  0  0
  -12.7242  -24.4559   29.7086 C   0  0  0  0  0  0  0  0  0  0  0  0
  -11.3318  -24.9112   30.0451 C   0  0  0  0  0  0  0  0  0  0  0  0
  -10.8194  -24.4173   31.1741 C   0  0  0  0  0  0  0  0  0  0  0  0
  -11.4819  -23.3888   31.8003 N   0  0  0  0  0  0  0  0  0  0  0  0
  -11.1619  -22.7201   32.9455 C   0  0  0  0  0  0  0  0  0  0  0  0
  -12.1195  -21.7462   33.0625 C   0  0  0  0  0  0  0  0  0  0  0  0
  -12.9973  -21.7924   32.0093 N   0  0  0  0  0  0  0  0  0  0  0  0
  -12.6288  -22.8131   31.2637 C   0  0  0  0  0  0  0  0  0  0  0  0
  -13.2669  -23.3711   30.1889 N   0  0  0  0  0  0  0  0  0  0  0  0
  -13.0963  -26.8164   29.1444 N   0  0  0  0  0  0  0  0  0  0  0  0
  -12.1703  -27.2201   27.9491 C   0  0  0  0  0  0  0  0  0  0  0  0
  -12.1656  -28.5694   28.6718 C   0  0  0  0  0  0  0  0  0  0  0  0
  -11.2316  -28.4659   29.9583 C   0  0  0  0  0  0  0  0  0  0  0  0
  -11.6152  -28.3310   31.2701 C   0  0  0  0  0  0  0  0  0  0  0  0
  -10.5725  -27.8752   32.0279 N   0  0  0  0  0  0  0  0  0  0  0  0
   -9.5491  -27.8091   31.2112 C   0  0  0  0  0  0  0  0  0  0  0  0
   -9.8903  -28.2090   29.9563 N   0  0  0  0  0  0  0  0  0  0  0  0
  -13.6508  -28.1626   28.8233 C   0  0  0  0  0  0  0  0  0  0  0  0
  -10.8153  -25.6727   29.5043 H   0  0  0  0  0  0  0  0  0  0  0  0
   -9.8855  -24.7518   31.6075 H   0  0  0  0  0  0  0  0  0  0  0  0
  -10.3162  -22.9876   33.5618 H   0  0  0  0  0  0  0  0  0  0  0  0
  -12.2232  -21.0091   33.8485 H   0  0  0  0  0  0  0  0  0  0  0  0
  -12.6657  -27.1518   26.9698 H   0  0  0  0  0  0  0  0  0  0  0  0
  -11.2158  -26.6988   27.8782 H   0  0  0  0  0  0  0  0  0  0  0  0
  -11.9843  -29.4433   28.0478 H   0  0  0  0  0  0  0  0  0  0  0  0
  -12.6052  -28.4366   31.6930 H   0  0  0  0  0  0  0  0  0  0  0  0
   -8.5500  -27.5256   31.5032 H   0  0  0  0  0  0  0  0  0  0  0  0
   -9.2727  -28.2853   29.1619 H   0  0  0  0  0  0  0  0  0  0  0  0
  -14.3073  -28.2007   27.9446 H   0  0  0  0  0  0  0  0  0  0  0  0
  -14.1732  -28.6153   29.6714 H   0  0  0  0  0  0  0  0  0  0  0  0
  1  2  2  0
  2  3  1  0
  3  4  1  0
  4  5  2  0
  5  6  1  0
  6  7  1  0
  7  8  2  0
  8  9  1  0
  9 10  2  0
 10 11  1  0
  2 12  1  0
 12 13  1  0
 13 14  1  0
 14 15  1  0
 15 16  2  0
 16 17  1  0
 17 18  2  0
 18 19  1  0
 14 20  1  0
 11  3  2  0
 20 12  1  0
 10  6  1  0
 19 15  1  0
  4 21  1  0
  5 22  1  0
  7 23  1  0
  8 24  1  0
 13 25  1  0
 13 26  1  0
 14 27  1  0
 16 28  1  0
 18 29  1  0
 19 30  1  0
 20 31  1  0
 20 32  1  0
M  END
>  <Energy>  (1187) 
128.46655275743433

>  <compound_id>  (1187) 
8697

>  <target_id>  (1187) 
1

>  <reference_id>  (1187) 
35

>  <inspiration_ids>  (1187) 
[107, 35]

>  <energy_score>  (1187) 
5.7438625393565985

>  <distance_score>  (1187) 
1.7908396363304302

>  <path>  (1187) 
/opt/xchem-fragalysis-2/maxwin/BulkDock/SCRATCH/511021/C8697-P35/C8697-P35.minimised.mol

>  <scratch_subdir>  (1187) 
/opt/xchem-fragalysis-2/maxwin/BulkDock/SCRATCH/511021/C8697-P35

>  <fragmenstein_runtime>  (1187) 
2.0200138092041016

>  <fragmenstein_outcome>  (1187) 
too moved

>  <fragmenstein_mode>  (1187) 
expansion

>  <fragmenstein_error>  (1187) 


$$$$
C19453-P107
     RDKit          3D

 32 35  0  0  0  0  0  0  0  0999 V2000
  -12.4925  -23.8285   26.1839 O   0  0  0  0  0  0  0  0  0  0  0  0
  -12.1790  -24.1110   27.2733 C   0  0  0  0  0  0  0  0  0  0  0  0
  -12.2860  -23.2831   28.5155 C   0  0  0  0  0  0  0  0  0  0  0  0
  -11.5006  -22.0416   28.6084 C   0  0  0  0  0  0  0  0  0  0  0  0
  -11.2243  -21.3722   29.6826 N   0  0  0  0  0  0  0  0  0  0  0  0
  -11.6716  -21.8910   30.8597 C   0  0  0  0  0  0  0  0  0  0  0  0
  -11.5204  -21.4288   32.0805 N   0  0  0  0  0  0  0  0  0  0  0  0
  -12.1729  -22.3074   32.8992 C   0  0  0  0  0  0  0  0  0  0  0  0
  -12.7414  -23.3172   32.1708 C   0  0  0  0  0  0  0  0  0  0  0  0
  -12.4485  -23.0285   30.8688 N   0  0  0  0  0  0  0  0  0  0  0  0
  -12.7769  -23.6886   29.7020 C   0  0  0  0  0  0  0  0  0  0  0  0
  -11.4894  -25.3163   27.7911 N   0  0  0  0  0  0  0  0  0  0  0  0
  -12.4808  -26.4015   28.1835 C   0  0  0  0  0  0  0  0  0  0  0  0
  -11.2609  -27.2456   28.3710 C   0  0  0  0  0  0  0  0  0  0  0  0
  -10.5030  -26.8170   29.7128 C   0  0  0  0  0  0  0  0  0  0  0  0
   -9.6950  -25.7095   29.8198 C   0  0  0  0  0  0  0  0  0  0  0  0
   -9.6370  -25.2667   31.0988 N   0  0  0  0  0  0  0  0  0  0  0  0
  -10.3256  -26.1383   31.7856 C   0  0  0  0  0  0  0  0  0  0  0  0
  -10.7318  -27.1861   31.0071 N   0  0  0  0  0  0  0  0  0  0  0  0
  -10.9017  -26.4797   27.0788 C   0  0  0  0  0  0  0  0  0  0  0  0
  -11.1260  -21.6734   27.6453 H   0  0  0  0  0  0  0  0  0  0  0  0
  -12.1953  -22.1736   33.9708 H   0  0  0  0  0  0  0  0  0  0  0  0
  -13.3168  -24.1768   32.4699 H   0  0  0  0  0  0  0  0  0  0  0  0
  -13.3703  -24.5591   29.8602 H   0  0  0  0  0  0  0  0  0  0  0  0
  -12.9480  -26.2250   29.1262 H   0  0  0  0  0  0  0  0  0  0  0  0
  -13.2211  -26.6577   27.4172 H   0  0  0  0  0  0  0  0  0  0  0  0
  -11.5398  -28.2868   28.2939 H   0  0  0  0  0  0  0  0  0  0  0  0
   -9.2507  -25.1259   29.0263 H   0  0  0  0  0  0  0  0  0  0  0  0
  -10.5148  -26.0819   32.8476 H   0  0  0  0  0  0  0  0  0  0  0  0
  -11.2147  -28.0032   31.3439 H   0  0  0  0  0  0  0  0  0  0  0  0
  -11.3682  -26.7108   26.1199 H   0  0  0  0  0  0  0  0  0  0  0  0
   -9.8278  -26.4057   26.9566 H   0  0  0  0  0  0  0  0  0  0  0  0
  1  2  2  0
  2  3  1  0
  3  4  1  0
  4  5  2  0
  5  6  1  0
  6  7  2  0
  7  8  1  0
  8  9  2  0
  9 10  1  0
 10 11  1  0
  2 12  1  0
 12 13  1  0
 13 14  1  0
 14 15  1  0
 15 16  2  0
 16 17  1  0
 17 18  2  0
 18 19  1  0
 14 20  1  0
 11  3  2  0
 20 12  1  0
 10  6  1  0
 19 15  1  0
  4 21  1  0
  8 22  1  0
  9 23  1  0
 11 24  1  0
 13 25  1  0
 13 26  1  0
 14 27  1  0
 16 28  1  0
 18 29  1  0
 19 30  1  0
 20 31  1  0
 20 32  1  0
M  END
>  <Energy>  (1188) 
84.194560389995559

>  <compound_id>  (1188) 
19453

>  <target_id>  (1188) 
1

>  <reference_id>  (1188) 
107

>  <inspiration_ids>  (1188) 
[107, 35]

>  <energy_score>  (1188) 
19.388886875578777

>  <distance_score>  (1188) 
1.8887152596920296

>  <path>  (1188) 
/opt/xchem-fragalysis-2/maxwin/BulkDock/SCRATCH/511021/C19453-P107/C19453-P107.minimised.mol

>  <scratch_subdir>  (1188) 
/opt/xchem-fragalysis-2/maxwin/BulkDock/SCRATCH/511021/C19453-P107

>  <fragmenstein_runtime>  (1188) 
3.190154552459717

>  <fragmenstein_outcome>  (1188) 
too moved

>  <fragmenstein_mode>  (1188) 
expansion

>  <fragmenstein_error>  (1188) 


$$$$
C19453-P35
     RDKit          3D

 32 35  0  0  0  0  0  0  0  0999 V2000
  -12.6006  -27.4047   31.2555 O   0  0  0  0  0  0  0  0  0  0  0  0
  -13.4551  -27.1818   30.4377 C   0  0  0  0  0  0  0  0  0  0  0  0
  -14.4872  -26.1958   30.7798 C   0  0  0  0  0  0  0  0  0  0  0  0
  -15.9440  -26.4173   30.7552 C   0  0  0  0  0  0  0  0  0  0  0  0
  -16.8452  -25.6420   31.2800 N   0  0  0  0  0  0  0  0  0  0  0  0
  -16.3679  -24.5230   31.9159 C   0  0  0  0  0  0  0  0  0  0  0  0
  -17.0256  -23.6318   32.6281 N   0  0  0  0  0  0  0  0  0  0  0  0
  -16.0963  -22.6880   32.9942 C   0  0  0  0  0  0  0  0  0  0  0  0
  -14.8431  -23.0118   32.5319 C   0  0  0  0  0  0  0  0  0  0  0  0
  -15.0143  -24.1898   31.8631 N   0  0  0  0  0  0  0  0  0  0  0  0
  -14.0799  -25.0181   31.2788 C   0  0  0  0  0  0  0  0  0  0  0  0
  -13.6020  -27.6518   29.1104 N   0  0  0  0  0  0  0  0  0  0  0  0
  -12.9022  -26.6943   28.0803 C   0  0  0  0  0  0  0  0  0  0  0  0
  -11.7174  -27.6249   28.0280 C   0  0  0  0  0  0  0  0  0  0  0  0
  -10.6405  -27.2043   29.0759 C   0  0  0  0  0  0  0  0  0  0  0  0
  -10.1523  -25.9247   29.2143 C   0  0  0  0  0  0  0  0  0  0  0  0
   -9.4184  -25.8040   30.3534 N   0  0  0  0  0  0  0  0  0  0  0  0
   -9.4414  -26.9973   30.9046 C   0  0  0  0  0  0  0  0  0  0  0  0
  -10.1014  -27.9048   30.1190 N   0  0  0  0  0  0  0  0  0  0  0  0
  -12.8025  -28.6563   28.3266 C   0  0  0  0  0  0  0  0  0  0  0  0
  -16.2763  -27.3406   30.2527 H   0  0  0  0  0  0  0  0  0  0  0  0
  -16.3749  -21.8355   33.5990 H   0  0  0  0  0  0  0  0  0  0  0  0
  -13.8791  -22.5428   32.6568 H   0  0  0  0  0  0  0  0  0  0  0  0
  -13.0374  -24.7340   31.3773 H   0  0  0  0  0  0  0  0  0  0  0  0
  -13.5055  -26.6220   27.1640 H   0  0  0  0  0  0  0  0  0  0  0  0
  -12.7603  -25.6783   28.4627 H   0  0  0  0  0  0  0  0  0  0  0  0
  -11.2701  -27.7338   27.0339 H   0  0  0  0  0  0  0  0  0  0  0  0
  -10.3457  -25.0630   28.5902 H   0  0  0  0  0  0  0  0  0  0  0  0
   -8.9780  -27.2676   31.8454 H   0  0  0  0  0  0  0  0  0  0  0  0
  -10.2606  -28.8734   30.3562 H   0  0  0  0  0  0  0  0  0  0  0  0
  -12.4896  -29.5002   28.9484 H   0  0  0  0  0  0  0  0  0  0  0  0
  -13.3784  -29.0470   27.4813 H   0  0  0  0  0  0  0  0  0  0  0  0
  1  2  2  0
  2  3  1  0
  3  4  1  0
  4  5  2  0
  5  6  1  0
  6  7  2  0
  7  8  1  0
  8  9  2  0
  9 10  1  0
 10 11  1  0
  2 12  1  0
 12 13  1  0
 13 14  1  0
 14 15  1  0
 15 16  2  0
 16 17  1  0
 17 18  2  0
 18 19  1  0
 14 20  1  0
 11  3  2  0
 20 12  1  0
 10  6  1  0
 19 15  1  0
  4 21  1  0
  8 22  1  0
  9 23  1  0
 11 24  1  0
 13 25  1  0
 13 26  1  0
 14 27  1  0
 16 28  1  0
 18 29  1  0
 19 30  1  0
 20 31  1  0
 20 32  1  0
M  END
>  <Energy>  (1189) 
55.19370021422872

>  <compound_id>  (1189) 
19453

>  <target_id>  (1189) 
1

>  <reference_id>  (1189) 
35

>  <inspiration_ids>  (1189) 
[107, 35]

>  <energy_score>  (1189) 
-6.635946356723764

>  <distance_score>  (1189) 
3.964437914297185

>  <path>  (1189) 
/opt/xchem-fragalysis-2/maxwin/BulkDock/SCRATCH/511021/C19453-P35/C19453-P35.minimised.mol

>  <scratch_subdir>  (1189) 
/opt/xchem-fragalysis-2/maxwin/BulkDock/SCRATCH/511021/C19453-P35

>  <fragmenstein_runtime>  (1189) 
4.880620002746582

>  <fragmenstein_outcome>  (1189) 
too moved

>  <fragmenstein_mode>  (1189) 
expansion

>  <fragmenstein_error>  (1189) 


$$$$
C19454-P107
     RDKit          3D

 38 40  0  0  0  0  0  0  0  0999 V2000
   -8.9316  -25.2598   32.6829 C   0  0  0  0  0  0  0  0  0  0  0  0
   -9.8254  -25.4789   31.5150 C   0  0  0  0  0  0  0  0  0  0  0  0
  -10.2785  -26.8838   31.1464 C   0  0  0  0  0  0  0  0  0  0  0  0
  -10.9633  -26.7826   29.8782 N   0  0  0  0  0  0  0  0  0  0  0  0
  -10.5403  -26.2518   28.6330 C   0  0  0  0  0  0  0  0  0  0  0  0
   -9.4842  -25.8235   28.2881 O   0  0  0  0  0  0  0  0  0  0  0  0
  -11.6276  -26.1552   27.7059 C   0  0  0  0  0  0  0  0  0  0  0  0
  -11.5739  -26.2179   26.3369 C   0  0  0  0  0  0  0  0  0  0  0  0
  -12.8056  -26.0187   25.7837 N   0  0  0  0  0  0  0  0  0  0  0  0
  -13.6020  -25.7731   26.7967 C   0  0  0  0  0  0  0  0  0  0  0  0
  -12.9286  -25.8313   27.9798 N   0  0  0  0  0  0  0  0  0  0  0  0
  -10.9365  -24.5863   31.6180 N   0  0  0  0  0  0  0  0  0  0  0  0
  -11.6034  -24.0420   32.7650 C   0  0  0  0  0  0  0  0  0  0  0  0
  -11.4523  -24.2562   33.9220 O   0  0  0  0  0  0  0  0  0  0  0  0
  -12.5105  -23.0264   32.3238 C   0  0  0  0  0  0  0  0  0  0  0  0
  -13.8363  -22.7885   32.6098 C   0  0  0  0  0  0  0  0  0  0  0  0
  -14.4687  -22.5230   31.4001 N   0  0  0  0  0  0  0  0  0  0  0  0
  -13.5258  -22.7773   30.5125 C   0  0  0  0  0  0  0  0  0  0  0  0
  -13.4362  -23.2603   29.2341 N   0  0  0  0  0  0  0  0  0  0  0  0
  -12.4000  -22.8330   28.5676 C   0  0  0  0  0  0  0  0  0  0  0  0
  -11.3315  -21.9617   29.1078 C   0  0  0  0  0  0  0  0  0  0  0  0
  -11.3386  -21.8297   30.4419 C   0  0  0  0  0  0  0  0  0  0  0  0
  -12.3909  -22.3621   31.1391 N   0  0  0  0  0  0  0  0  0  0  0  0
   -8.7571  -24.1826   32.7570 H   0  0  0  0  0  0  0  0  0  0  0  0
   -9.3749  -25.5661   33.6324 H   0  0  0  0  0  0  0  0  0  0  0  0
   -7.9735  -25.7526   32.5313 H   0  0  0  0  0  0  0  0  0  0  0  0
   -9.2605  -25.0953   30.6607 H   0  0  0  0  0  0  0  0  0  0  0  0
  -10.9712  -27.3158   31.8693 H   0  0  0  0  0  0  0  0  0  0  0  0
   -9.4265  -27.5451   30.9837 H   0  0  0  0  0  0  0  0  0  0  0  0
  -11.9513  -26.9731   29.8351 H   0  0  0  0  0  0  0  0  0  0  0  0
  -10.7159  -26.4437   25.7258 H   0  0  0  0  0  0  0  0  0  0  0  0
  -14.6543  -25.5268   26.7289 H   0  0  0  0  0  0  0  0  0  0  0  0
  -13.2864  -25.5216   28.8780 H   0  0  0  0  0  0  0  0  0  0  0  0
  -11.3772  -24.2403   30.7871 H   0  0  0  0  0  0  0  0  0  0  0  0
  -14.4100  -23.0412   33.4930 H   0  0  0  0  0  0  0  0  0  0  0  0
  -12.2732  -23.1209   27.5100 H   0  0  0  0  0  0  0  0  0  0  0  0
  -10.5682  -21.6117   28.4371 H   0  0  0  0  0  0  0  0  0  0  0  0
  -10.5795  -21.3529   31.0404 H   0  0  0  0  0  0  0  0  0  0  0  0
  1  2  1  0
  2  3  1  0
  3  4  1  0
  4  5  1  0
  5  6  2  0
  5  7  1  0
  7  8  2  0
  8  9  1  0
  9 10  2  0
 10 11  1  0
  2 12  1  0
 12 13  1  0
 13 14  2  0
 13 15  1  0
 15 16  2  0
 16 17  1  0
 17 18  2  0
 18 19  1  0
 19 20  2  0
 20 21  1  0
 21 22  2  0
 22 23  1  0
 11  7  1  0
 23 15  1  0
 23 18  1  0
  1 24  1  0
  1 25  1  0
  1 26  1  0
  2 27  1  0
  3 28  1  0
  3 29  1  0
  4 30  1  0
  8 31  1  0
 10 32  1  0
 11 33  1  0
 12 34  1  0
 16 35  1  0
 20 36  1  0
 21 37  1  0
 22 38  1  0
M  END
>  <Energy>  (1190) 
19.339197288106021

>  <compound_id>  (1190) 
19454

>  <target_id>  (1190) 
1

>  <reference_id>  (1190) 
107

>  <inspiration_ids>  (1190) 
[107, 35]

>  <energy_score>  (1190) 
25.216384361689293

>  <distance_score>  (1190) 
3.9172635657161115

>  <path>  (1190) 
/opt/xchem-fragalysis-2/maxwin/BulkDock/SCRATCH/511021/C19454-P107/C19454-P107.minimised.mol

>  <scratch_subdir>  (1190) 
/opt/xchem-fragalysis-2/maxwin/BulkDock/SCRATCH/511021/C19454-P107

>  <fragmenstein_runtime>  (1190) 
6.302743196487427

>  <fragmenstein_outcome>  (1190) 
too moved

>  <fragmenstein_mode>  (1190) 
expansion

>  <fragmenstein_error>  (1190) 


$$$$
C19454-P35
     RDKit          3D

 38 40  0  0  0  0  0  0  0  0999 V2000
  -10.6192  -20.5732   34.5990 C   0  0  0  0  0  0  0  0  0  0  0  0
  -10.9206  -22.0527   34.4308 C   0  0  0  0  0  0  0  0  0  0  0  0
   -9.6559  -22.8983   34.1201 C   0  0  0  0  0  0  0  0  0  0  0  0
   -9.8339  -23.9154   33.0708 N   0  0  0  0  0  0  0  0  0  0  0  0
   -9.7614  -25.4447   33.1432 C   0  0  0  0  0  0  0  0  0  0  0  0
   -9.6254  -26.1498   34.0565 O   0  0  0  0  0  0  0  0  0  0  0  0
   -9.9989  -26.0368   31.8488 C   0  0  0  0  0  0  0  0  0  0  0  0
   -9.6501  -25.7214   30.5576 C   0  0  0  0  0  0  0  0  0  0  0  0
  -10.1381  -26.6226   29.6517 N   0  0  0  0  0  0  0  0  0  0  0  0
  -10.7389  -27.5270   30.3849 C   0  0  0  0  0  0  0  0  0  0  0  0
  -10.6729  -27.2195   31.7062 N   0  0  0  0  0  0  0  0  0  0  0  0
  -11.8228  -22.3269   33.3591 N   0  0  0  0  0  0  0  0  0  0  0  0
  -11.7586  -21.9416   31.8905 C   0  0  0  0  0  0  0  0  0  0  0  0
  -11.0032  -21.2728   31.3216 O   0  0  0  0  0  0  0  0  0  0  0  0
  -12.7910  -22.6514   31.2079 C   0  0  0  0  0  0  0  0  0  0  0  0
  -13.9834  -23.1681   31.6574 C   0  0  0  0  0  0  0  0  0  0  0  0
  -14.3534  -24.2338   30.8928 N   0  0  0  0  0  0  0  0  0  0  0  0
  -13.4832  -24.3080   29.9126 C   0  0  0  0  0  0  0  0  0  0  0  0
  -13.4234  -25.2074   28.8934 N   0  0  0  0  0  0  0  0  0  0  0  0
  -12.4766  -25.0335   28.0251 C   0  0  0  0  0  0  0  0  0  0  0  0
  -11.5019  -23.9223   27.9986 C   0  0  0  0  0  0  0  0  0  0  0  0
  -11.6097  -23.0678   29.0203 C   0  0  0  0  0  0  0  0  0  0  0  0
  -12.5681  -23.2766   30.0024 N   0  0  0  0  0  0  0  0  0  0  0  0
   -9.9498  -20.4109   35.4499 H   0  0  0  0  0  0  0  0  0  0  0  0
  -10.1414  -20.1520   33.7083 H   0  0  0  0  0  0  0  0  0  0  0  0
  -11.5409  -20.0085   34.7761 H   0  0  0  0  0  0  0  0  0  0  0  0
  -11.3912  -22.4339   35.3440 H   0  0  0  0  0  0  0  0  0  0  0  0
   -8.8723  -22.2407   33.7387 H   0  0  0  0  0  0  0  0  0  0  0  0
   -9.3153  -23.3892   35.0326 H   0  0  0  0  0  0  0  0  0  0  0  0
  -10.0395  -23.6331   32.1259 H   0  0  0  0  0  0  0  0  0  0  0  0
   -9.0643  -24.8883   30.2223 H   0  0  0  0  0  0  0  0  0  0  0  0
  -11.2356  -28.4135   30.0145 H   0  0  0  0  0  0  0  0  0  0  0  0
  -11.0873  -27.7284   32.4701 H   0  0  0  0  0  0  0  0  0  0  0  0
  -12.6616  -22.8591   33.5303 H   0  0  0  0  0  0  0  0  0  0  0  0
  -14.5430  -22.9242   32.5529 H   0  0  0  0  0  0  0  0  0  0  0  0
  -12.3788  -25.7582   27.2000 H   0  0  0  0  0  0  0  0  0  0  0  0
  -10.8034  -23.8347   27.1824 H   0  0  0  0  0  0  0  0  0  0  0  0
  -10.9918  -22.1842   29.0914 H   0  0  0  0  0  0  0  0  0  0  0  0
  1  2  1  0
  2  3  1  0
  3  4  1  0
  4  5  1  0
  5  6  2  0
  5  7  1  0
  7  8  2  0
  8  9  1  0
  9 10  2  0
 10 11  1  0
  2 12  1  0
 12 13  1  0
 13 14  2  0
 13 15  1  0
 15 16  2  0
 16 17  1  0
 17 18  2  0
 18 19  1  0
 19 20  2  0
 20 21  1  0
 21 22  2  0
 22 23  1  0
 11  7  1  0
 23 15  1  0
 23 18  1  0
  1 24  1  0
  1 25  1  0
  1 26  1  0
  2 27  1  0
  3 28  1  0
  3 29  1  0
  4 30  1  0
  8 31  1  0
 10 32  1  0
 11 33  1  0
 12 34  1  0
 16 35  1  0
 20 36  1  0
 21 37  1  0
 22 38  1  0
M  END
>  <Energy>  (1191) 
-8.9161625557553403

>  <compound_id>  (1191) 
19454

>  <target_id>  (1191) 
1

>  <reference_id>  (1191) 
35

>  <inspiration_ids>  (1191) 
[107, 35]

>  <energy_score>  (1191) 
3.521005847897527

>  <distance_score>  (1191) 
2.6615467893750835

>  <path>  (1191) 
/opt/xchem-fragalysis-2/maxwin/BulkDock/SCRATCH/511021/C19454-P35/C19454-P35.minimised.mol

>  <scratch_subdir>  (1191) 
/opt/xchem-fragalysis-2/maxwin/BulkDock/SCRATCH/511021/C19454-P35

>  <fragmenstein_runtime>  (1191) 
4.605627536773682

>  <fragmenstein_outcome>  (1191) 
too moved

>  <fragmenstein_mode>  (1191) 
expansion

>  <fragmenstein_error>  (1191) 


$$$$
C19455-P107
     RDKit          3D

 38 40  0  0  0  0  0  0  0  0999 V2000
  -13.2500  -25.1031   26.5494 C   0  0  0  0  0  0  0  0  0  0  0  0
  -12.7686  -25.9364   27.7176 C   0  0  0  0  0  0  0  0  0  0  0  0
  -11.3675  -26.5144   27.4584 C   0  0  0  0  0  0  0  0  0  0  0  0
  -10.8606  -26.8480   28.7356 N   0  0  0  0  0  0  0  0  0  0  0  0
  -11.4222  -27.6237   29.7919 C   0  0  0  0  0  0  0  0  0  0  0  0
  -12.4316  -28.2618   29.8408 O   0  0  0  0  0  0  0  0  0  0  0  0
  -10.5748  -27.4354   30.9297 C   0  0  0  0  0  0  0  0  0  0  0  0
   -9.2178  -27.3911   30.9333 C   0  0  0  0  0  0  0  0  0  0  0  0
   -8.7895  -26.1518   31.3884 N   0  0  0  0  0  0  0  0  0  0  0  0
   -9.8003  -25.6932   32.0666 C   0  0  0  0  0  0  0  0  0  0  0  0
  -10.8006  -26.6600   32.0542 N   0  0  0  0  0  0  0  0  0  0  0  0
  -12.9295  -25.2956   29.0634 N   0  0  0  0  0  0  0  0  0  0  0  0
  -11.9633  -24.7621   29.9712 C   0  0  0  0  0  0  0  0  0  0  0  0
  -10.7847  -24.6174   29.8556 O   0  0  0  0  0  0  0  0  0  0  0  0
  -12.6032  -24.2285   31.2057 C   0  0  0  0  0  0  0  0  0  0  0  0
  -12.5564  -24.3441   32.5876 C   0  0  0  0  0  0  0  0  0  0  0  0
  -12.4151  -23.1044   33.1784 N   0  0  0  0  0  0  0  0  0  0  0  0
  -12.3096  -22.3278   32.1314 C   0  0  0  0  0  0  0  0  0  0  0  0
  -11.3417  -21.4355   31.8008 N   0  0  0  0  0  0  0  0  0  0  0  0
  -11.1566  -21.3471   30.5191 C   0  0  0  0  0  0  0  0  0  0  0  0
  -11.9838  -21.8518   29.4174 C   0  0  0  0  0  0  0  0  0  0  0  0
  -11.4018  -22.0967   27.8598 Cl  0  0  0  0  0  0  0  0  0  0  0  0
  -13.0735  -22.4715   29.8392 C   0  0  0  0  0  0  0  0  0  0  0  0
  -13.0259  -22.9311   31.1154 N   0  0  0  0  0  0  0  0  0  0  0  0
  -13.0427  -25.6078   25.5999 H   0  0  0  0  0  0  0  0  0  0  0  0
  -12.7782  -24.1215   26.5187 H   0  0  0  0  0  0  0  0  0  0  0  0
  -14.3337  -24.9791   26.6084 H   0  0  0  0  0  0  0  0  0  0  0  0
  -13.4471  -26.7980   27.7704 H   0  0  0  0  0  0  0  0  0  0  0  0
  -10.7029  -25.7578   27.0308 H   0  0  0  0  0  0  0  0  0  0  0  0
  -11.3731  -27.3858   26.8147 H   0  0  0  0  0  0  0  0  0  0  0  0
  -10.0265  -26.3712   29.0804 H   0  0  0  0  0  0  0  0  0  0  0  0
   -8.5653  -28.0846   30.4458 H   0  0  0  0  0  0  0  0  0  0  0  0
   -9.8301  -24.7995   32.6745 H   0  0  0  0  0  0  0  0  0  0  0  0
  -10.7872  -27.1637   32.9151 H   0  0  0  0  0  0  0  0  0  0  0  0
  -13.8413  -25.1894   29.4611 H   0  0  0  0  0  0  0  0  0  0  0  0
  -12.4239  -25.1974   33.2179 H   0  0  0  0  0  0  0  0  0  0  0  0
  -10.3316  -20.7754   30.1611 H   0  0  0  0  0  0  0  0  0  0  0  0
  -13.6845  -23.0594   29.1702 H   0  0  0  0  0  0  0  0  0  0  0  0
  1  2  1  0
  2  3  1  0
  3  4  1  0
  4  5  1  0
  5  6  2  0
  5  7  1  0
  7  8  2  0
  8  9  1  0
  9 10  2  0
 10 11  1  0
  2 12  1  0
 12 13  1  0
 13 14  2  0
 13 15  1  0
 15 16  2  0
 16 17  1  0
 17 18  2  0
 18 19  1  0
 19 20  2  0
 20 21  1  0
 21 22  1  0
 21 23  2  0
 23 24  1  0
 11  7  1  0
 24 15  1  0
 24 18  1  0
  1 25  1  0
  1 26  1  0
  1 27  1  0
  2 28  1  0
  3 29  1  0
  3 30  1  0
  4 31  1  0
  8 32  1  0
 10 33  1  0
 11 34  1  0
 12 35  1  0
 16 36  1  0
 20 37  1  0
 23 38  1  0
M  END
>  <Energy>  (1192) 
134.51345265094349

>  <compound_id>  (1192) 
19455

>  <target_id>  (1192) 
1

>  <reference_id>  (1192) 
107

>  <inspiration_ids>  (1192) 
[107, 35]

>  <energy_score>  (1192) 
146.81340618943156

>  <distance_score>  (1192) 
2.6850863404619765

>  <path>  (1192) 
/opt/xchem-fragalysis-2/maxwin/BulkDock/SCRATCH/511021/C19455-P107/C19455-P107.minimised.mol

>  <scratch_subdir>  (1192) 
/opt/xchem-fragalysis-2/maxwin/BulkDock/SCRATCH/511021/C19455-P107

>  <fragmenstein_runtime>  (1192) 
4.774800539016724

>  <fragmenstein_outcome>  (1192) 
too moved

>  <fragmenstein_mode>  (1192) 
expansion

>  <fragmenstein_error>  (1192) 


$$$$
C19455-P35
     RDKit          3D

 38 40  0  0  0  0  0  0  0  0999 V2000
  -17.0346  -26.8901   30.0655 C   0  0  0  0  0  0  0  0  0  0  0  0
  -15.7564  -27.1780   30.8399 C   0  0  0  0  0  0  0  0  0  0  0  0
  -14.9258  -28.2903   30.1585 C   0  0  0  0  0  0  0  0  0  0  0  0
  -13.5229  -28.1271   30.4885 N   0  0  0  0  0  0  0  0  0  0  0  0
  -12.2863  -28.0574   29.5812 C   0  0  0  0  0  0  0  0  0  0  0  0
  -12.1864  -28.1964   28.4308 O   0  0  0  0  0  0  0  0  0  0  0  0
  -11.1644  -27.6693   30.3997 C   0  0  0  0  0  0  0  0  0  0  0  0
  -11.0570  -26.7347   31.4105 C   0  0  0  0  0  0  0  0  0  0  0  0
   -9.8591  -26.8007   32.0417 N   0  0  0  0  0  0  0  0  0  0  0  0
   -9.1856  -27.6874   31.3597 C   0  0  0  0  0  0  0  0  0  0  0  0
   -9.8881  -28.1478   30.2864 N   0  0  0  0  0  0  0  0  0  0  0  0
  -14.9321  -25.9946   30.9724 N   0  0  0  0  0  0  0  0  0  0  0  0
  -15.1887  -24.6812   31.7158 C   0  0  0  0  0  0  0  0  0  0  0  0
  -16.1340  -24.3065   32.2782 O   0  0  0  0  0  0  0  0  0  0  0  0
  -14.0362  -23.7871   31.5577 C   0  0  0  0  0  0  0  0  0  0  0  0
  -13.6837  -22.7677   32.4304 C   0  0  0  0  0  0  0  0  0  0  0  0
  -12.6596  -22.0032   31.9545 N   0  0  0  0  0  0  0  0  0  0  0  0
  -12.3860  -22.4837   30.7676 C   0  0  0  0  0  0  0  0  0  0  0  0
  -11.5599  -21.9445   29.8263 N   0  0  0  0  0  0  0  0  0  0  0  0
  -11.4170  -22.6218   28.7301 C   0  0  0  0  0  0  0  0  0  0  0  0
  -12.0692  -23.9052   28.4064 C   0  0  0  0  0  0  0  0  0  0  0  0
  -11.7941  -24.6401   26.8958 Cl  0  0  0  0  0  0  0  0  0  0  0  0
  -12.9636  -24.3280   29.3032 C   0  0  0  0  0  0  0  0  0  0  0  0
  -13.1404  -23.6325   30.5037 N   0  0  0  0  0  0  0  0  0  0  0  0
  -17.6299  -26.1175   30.5635 H   0  0  0  0  0  0  0  0  0  0  0  0
  -17.6505  -27.7915   29.9836 H   0  0  0  0  0  0  0  0  0  0  0  0
  -16.8125  -26.5336   29.0539 H   0  0  0  0  0  0  0  0  0  0  0  0
  -16.0267  -27.4668   31.8581 H   0  0  0  0  0  0  0  0  0  0  0  0
  -15.0078  -28.2390   29.0676 H   0  0  0  0  0  0  0  0  0  0  0  0
  -15.2524  -29.2818   30.4853 H   0  0  0  0  0  0  0  0  0  0  0  0
  -13.2376  -28.0383   31.4559 H   0  0  0  0  0  0  0  0  0  0  0  0
  -11.8001  -26.0266   31.7406 H   0  0  0  0  0  0  0  0  0  0  0  0
   -8.2059  -28.0657   31.6160 H   0  0  0  0  0  0  0  0  0  0  0  0
   -9.5571  -28.8252   29.6126 H   0  0  0  0  0  0  0  0  0  0  0  0
  -13.9743  -26.0270   30.6705 H   0  0  0  0  0  0  0  0  0  0  0  0
  -14.1626  -22.5332   33.3740 H   0  0  0  0  0  0  0  0  0  0  0  0
  -10.7681  -22.2047   27.9513 H   0  0  0  0  0  0  0  0  0  0  0  0
  -13.5883  -25.1737   29.0670 H   0  0  0  0  0  0  0  0  0  0  0  0
  1  2  1  0
  2  3  1  0
  3  4  1  0
  4  5  1  0
  5  6  2  0
  5  7  1  0
  7  8  2  0
  8  9  1  0
  9 10  2  0
 10 11  1  0
  2 12  1  0
 12 13  1  0
 13 14  2  0
 13 15  1  0
 15 16  2  0
 16 17  1  0
 17 18  2  0
 18 19  1  0
 19 20  2  0
 20 21  1  0
 21 22  1  0
 21 23  2  0
 23 24  1  0
 11  7  1  0
 24 15  1  0
 24 18  1  0
  1 25  1  0
  1 26  1  0
  1 27  1  0
  2 28  1  0
  3 29  1  0
  3 30  1  0
  4 31  1  0
  8 32  1  0
 10 33  1  0
 11 34  1  0
 12 35  1  0
 16 36  1  0
 20 37  1  0
 23 38  1  0
M  END
>  <Energy>  (1193) 
-4.1373400115761312

>  <compound_id>  (1193) 
19455

>  <target_id>  (1193) 
1

>  <reference_id>  (1193) 
35

>  <inspiration_ids>  (1193) 
[107, 35]

>  <energy_score>  (1193) 
-4.815486092878643

>  <distance_score>  (1193) 
2.584909747299577

>  <path>  (1193) 
/opt/xchem-fragalysis-2/maxwin/BulkDock/SCRATCH/511021/C19455-P35/C19455-P35.minimised.mol

>  <scratch_subdir>  (1193) 
/opt/xchem-fragalysis-2/maxwin/BulkDock/SCRATCH/511021/C19455-P35

>  <fragmenstein_runtime>  (1193) 
5.275062799453735

>  <fragmenstein_outcome>  (1193) 
too moved

>  <fragmenstein_mode>  (1193) 
expansion

>  <fragmenstein_error>  (1193) 


$$$$
C19456-P107
     RDKit          3D

 26 28  0  0  0  0  0  0  0  0999 V2000
  -12.3026  -24.2082   28.5505 C   0  0  0  0  0  0  0  0  0  0  0  0
  -11.8713  -22.8359   28.2038 C   0  0  0  0  0  0  0  0  0  0  0  0
  -11.6335  -21.8722   29.0375 N   0  0  0  0  0  0  0  0  0  0  0  0
  -11.7708  -22.1684   30.3610 C   0  0  0  0  0  0  0  0  0  0  0  0
  -11.6316  -21.3789   31.4012 N   0  0  0  0  0  0  0  0  0  0  0  0
  -11.8460  -22.1467   32.5018 C   0  0  0  0  0  0  0  0  0  0  0  0
  -11.9355  -23.4651   32.1450 C   0  0  0  0  0  0  0  0  0  0  0  0
  -11.8904  -24.6777   32.9739 C   0  0  0  0  0  0  0  0  0  0  0  0
  -10.6111  -25.4058   32.9000 N   0  0  0  0  0  0  0  0  0  0  0  0
  -10.3753  -26.0728   31.7391 C   0  0  0  0  0  0  0  0  0  0  0  0
  -10.8378  -27.2125   31.1250 C   0  0  0  0  0  0  0  0  0  0  0  0
  -10.6012  -27.1645   29.7766 N   0  0  0  0  0  0  0  0  0  0  0  0
   -9.7966  -26.1414   29.6321 C   0  0  0  0  0  0  0  0  0  0  0  0
   -9.5082  -25.5620   30.8319 N   0  0  0  0  0  0  0  0  0  0  0  0
  -12.0790  -23.4513   30.7784 N   0  0  0  0  0  0  0  0  0  0  0  0
  -12.3847  -24.4420   29.8640 C   0  0  0  0  0  0  0  0  0  0  0  0
  -12.4998  -24.9394   27.7819 H   0  0  0  0  0  0  0  0  0  0  0  0
  -11.7622  -22.6418   27.1246 H   0  0  0  0  0  0  0  0  0  0  0  0
  -11.8469  -21.7258   33.4978 H   0  0  0  0  0  0  0  0  0  0  0  0
  -12.0492  -24.3999   34.0152 H   0  0  0  0  0  0  0  0  0  0  0  0
  -12.7123  -25.3192   32.6927 H   0  0  0  0  0  0  0  0  0  0  0  0
   -9.8704  -24.7782   33.2050 H   0  0  0  0  0  0  0  0  0  0  0  0
  -11.3943  -28.0186   31.5602 H   0  0  0  0  0  0  0  0  0  0  0  0
   -9.3738  -25.7942   28.7005 H   0  0  0  0  0  0  0  0  0  0  0  0
   -8.9184  -24.7688   30.9944 H   0  0  0  0  0  0  0  0  0  0  0  0
  -12.6502  -25.4065   30.2591 H   0  0  0  0  0  0  0  0  0  0  0  0
  1  2  1  0
  2  3  2  0
  3  4  1  0
  4  5  2  0
  5  6  1  0
  6  7  2  0
  7  8  1  0
  8  9  1  0
  9 10  1  0
 10 11  2  0
 11 12  1  0
 12 13  2  0
 13 14  1  0
  7 15  1  0
 15 16  1  0
 16  1  2  0
 15  4  1  0
 14 10  1  0
  1 17  1  0
  2 18  1  0
  6 19  1  0
  8 20  1  0
  8 21  1  0
  9 22  1  0
 11 23  1  0
 13 24  1  0
 14 25  1  0
 16 26  1  0
M  END
>  <Energy>  (1194) 
31.742706685385819

>  <compound_id>  (1194) 
19456

>  <target_id>  (1194) 
1

>  <reference_id>  (1194) 
107

>  <inspiration_ids>  (1194) 
[107, 35]

>  <energy_score>  (1194) 
-11.508910783975821

>  <distance_score>  (1194) 
1.699136453432875

>  <path>  (1194) 
/opt/xchem-fragalysis-2/maxwin/BulkDock/SCRATCH/511021/C19456-P107/C19456-P107.minimised.mol

>  <scratch_subdir>  (1194) 
/opt/xchem-fragalysis-2/maxwin/BulkDock/SCRATCH/511021/C19456-P107

>  <fragmenstein_runtime>  (1194) 
2.282834768295288

>  <fragmenstein_outcome>  (1194) 
too moved

>  <fragmenstein_mode>  (1194) 
expansion

>  <fragmenstein_error>  (1194) 


$$$$
C19456-P35
     RDKit          3D

 26 28  0  0  0  0  0  0  0  0999 V2000
  -12.0317  -24.5486   27.4777 C   0  0  0  0  0  0  0  0  0  0  0  0
  -11.7349  -23.1768   27.0427 C   0  0  0  0  0  0  0  0  0  0  0  0
  -11.5252  -22.1480   27.7992 N   0  0  0  0  0  0  0  0  0  0  0  0
  -11.6386  -22.3278   29.1351 C   0  0  0  0  0  0  0  0  0  0  0  0
  -11.5364  -21.4362   30.0996 N   0  0  0  0  0  0  0  0  0  0  0  0
  -11.7219  -22.1184   31.2616 C   0  0  0  0  0  0  0  0  0  0  0  0
  -11.9487  -23.4442   30.9950 C   0  0  0  0  0  0  0  0  0  0  0  0
  -12.2436  -24.5216   31.9124 C   0  0  0  0  0  0  0  0  0  0  0  0
  -12.1523  -25.8616   31.3542 N   0  0  0  0  0  0  0  0  0  0  0  0
  -11.0354  -26.6145   31.3673 C   0  0  0  0  0  0  0  0  0  0  0  0
  -10.8169  -27.9000   30.9370 C   0  0  0  0  0  0  0  0  0  0  0  0
   -9.5763  -28.3080   31.3042 N   0  0  0  0  0  0  0  0  0  0  0  0
   -9.0325  -27.2669   31.8922 C   0  0  0  0  0  0  0  0  0  0  0  0
   -9.8443  -26.1854   31.8730 N   0  0  0  0  0  0  0  0  0  0  0  0
  -11.9241  -23.5841   29.6375 N   0  0  0  0  0  0  0  0  0  0  0  0
  -12.1330  -24.6764   28.7985 C   0  0  0  0  0  0  0  0  0  0  0  0
  -12.1856  -25.3384   26.7596 H   0  0  0  0  0  0  0  0  0  0  0  0
  -11.7168  -23.0508   25.9501 H   0  0  0  0  0  0  0  0  0  0  0  0
  -11.6850  -21.6213   32.2234 H   0  0  0  0  0  0  0  0  0  0  0  0
  -11.6045  -24.4074   32.7962 H   0  0  0  0  0  0  0  0  0  0  0  0
  -13.2835  -24.3405   32.2167 H   0  0  0  0  0  0  0  0  0  0  0  0
  -13.0477  -26.3403   31.4216 H   0  0  0  0  0  0  0  0  0  0  0  0
  -11.5024  -28.5659   30.4327 H   0  0  0  0  0  0  0  0  0  0  0  0
   -8.0756  -27.2532   32.3872 H   0  0  0  0  0  0  0  0  0  0  0  0
   -9.6313  -25.2823   32.2686 H   0  0  0  0  0  0  0  0  0  0  0  0
  -12.3935  -25.6369   29.2039 H   0  0  0  0  0  0  0  0  0  0  0  0
  1  2  1  0
  2  3  2  0
  3  4  1  0
  4  5  2  0
  5  6  1  0
  6  7  2  0
  7  8  1  0
  8  9  1  0
  9 10  1  0
 10 11  2  0
 11 12  1  0
 12 13  2  0
 13 14  1  0
  7 15  1  0
 15 16  1  0
 16  1  2  0
 15  4  1  0
 14 10  1  0
  1 17  1  0
  2 18  1  0
  6 19  1  0
  8 20  1  0
  8 21  1  0
  9 22  1  0
 11 23  1  0
 13 24  1  0
 14 25  1  0
 16 26  1  0
M  END
>  <Energy>  (1195) 
29.224846744608762

>  <compound_id>  (1195) 
19456

>  <target_id>  (1195) 
1

>  <reference_id>  (1195) 
35

>  <inspiration_ids>  (1195) 
[107, 35]

>  <energy_score>  (1195) 
-14.026770724754897

>  <distance_score>  (1195) 
2.0373665165091777

>  <path>  (1195) 
/opt/xchem-fragalysis-2/maxwin/BulkDock/SCRATCH/511021/C19456-P35/C19456-P35.minimised.mol

>  <scratch_subdir>  (1195) 
/opt/xchem-fragalysis-2/maxwin/BulkDock/SCRATCH/511021/C19456-P35

>  <fragmenstein_runtime>  (1195) 
1.6033141613006592

>  <fragmenstein_outcome>  (1195) 
too moved

>  <fragmenstein_mode>  (1195) 
expansion

>  <fragmenstein_error>  (1195) 


$$$$
C8697-P107
     RDKit          3D

 32 35  0  0  0  0  0  0  0  0999 V2000
  -12.0270  -22.3693   27.6624 O   0  0  0  0  0  0  0  0  0  0  0  0
  -11.7960  -23.2336   28.4098 C   0  0  0  0  0  0  0  0  0  0  0  0
  -11.9212  -23.0799   29.9380 C   0  0  0  0  0  0  0  0  0  0  0  0
  -11.2862  -24.1014   30.8330 C   0  0  0  0  0  0  0  0  0  0  0  0
  -11.7917  -24.2180   32.0579 C   0  0  0  0  0  0  0  0  0  0  0  0
  -12.7647  -23.3279   32.4293 N   0  0  0  0  0  0  0  0  0  0  0  0
  -13.4969  -23.2678   33.5664 C   0  0  0  0  0  0  0  0  0  0  0  0
  -14.2525  -22.1323   33.4510 C   0  0  0  0  0  0  0  0  0  0  0  0
  -14.0131  -21.5027   32.2675 N   0  0  0  0  0  0  0  0  0  0  0  0
  -13.1592  -22.2711   31.6262 C   0  0  0  0  0  0  0  0  0  0  0  0
  -12.7277  -22.1528   30.3428 N   0  0  0  0  0  0  0  0  0  0  0  0
  -11.4487  -24.6416   28.1602 N   0  0  0  0  0  0  0  0  0  0  0  0
   -9.9205  -24.8354   28.0374 C   0  0  0  0  0  0  0  0  0  0  0  0
  -10.3073  -26.2402   27.6503 C   0  0  0  0  0  0  0  0  0  0  0  0
  -10.7416  -27.0173   28.9370 C   0  0  0  0  0  0  0  0  0  0  0  0
  -11.9196  -27.6831   29.0892 C   0  0  0  0  0  0  0  0  0  0  0  0
  -12.0033  -28.1930   30.3433 N   0  0  0  0  0  0  0  0  0  0  0  0
  -10.9472  -27.7621   30.9850 C   0  0  0  0  0  0  0  0  0  0  0  0
  -10.1224  -27.0848   30.1547 N   0  0  0  0  0  0  0  0  0  0  0  0
  -11.3820  -25.4186   26.8898 C   0  0  0  0  0  0  0  0  0  0  0  0
  -10.4880  -24.7294   30.5247 H   0  0  0  0  0  0  0  0  0  0  0  0
  -11.4749  -24.9539   32.7837 H   0  0  0  0  0  0  0  0  0  0  0  0
  -13.4567  -24.0321   34.3183 H   0  0  0  0  0  0  0  0  0  0  0  0
  -14.9808  -21.7514   34.1531 H   0  0  0  0  0  0  0  0  0  0  0  0
   -9.4950  -24.1569   27.2927 H   0  0  0  0  0  0  0  0  0  0  0  0
   -9.3344  -24.7459   28.9470 H   0  0  0  0  0  0  0  0  0  0  0  0
   -9.6186  -26.8093   27.0352 H   0  0  0  0  0  0  0  0  0  0  0  0
  -12.7006  -27.8334   28.3579 H   0  0  0  0  0  0  0  0  0  0  0  0
  -10.7204  -27.9400   32.0201 H   0  0  0  0  0  0  0  0  0  0  0  0
   -9.2635  -26.6657   30.4641 H   0  0  0  0  0  0  0  0  0  0  0  0
  -11.0952  -24.8410   26.0018 H   0  0  0  0  0  0  0  0  0  0  0  0
  -12.3138  -25.9498   26.6748 H   0  0  0  0  0  0  0  0  0  0  0  0
  1  2  2  0
  2  3  1  0
  3  4  1  0
  4  5  2  0
  5  6  1  0
  6  7  1  0
  7  8  2  0
  8  9  1  0
  9 10  2  0
 10 11  1  0
  2 12  1  0
 12 13  1  0
 13 14  1  0
 14 15  1  0
 15 16  2  0
 16 17  1  0
 17 18  2  0
 18 19  1  0
 14 20  1  0
 11  3  2  0
 20 12  1  0
 10  6  1  0
 19 15  1  0
  4 21  1  0
  5 22  1  0
  7 23  1  0
  8 24  1  0
 13 25  1  0
 13 26  1  0
 14 27  1  0
 16 28  1  0
 18 29  1  0
 19 30  1  0
 20 31  1  0
 20 32  1  0
M  END
>  <Energy>  (1196) 
129.78466734847143

>  <compound_id>  (1196) 
8697

>  <target_id>  (1196) 
1

>  <reference_id>  (1196) 
107

>  <inspiration_ids>  (1196) 
[107, 35]

>  <energy_score>  (1196) 
7.061977130396372

>  <distance_score>  (1196) 
2.3556107842280314

>  <path>  (1196) 
/opt/xchem-fragalysis-2/maxwin/BulkDock/SCRATCH/511021/C8697-P107/C8697-P107.minimised.mol

>  <scratch_subdir>  (1196) 
/opt/xchem-fragalysis-2/maxwin/BulkDock/SCRATCH/511021/C8697-P107

>  <fragmenstein_runtime>  (1196) 
2.591768503189087

>  <fragmenstein_outcome>  (1196) 
too moved

>  <fragmenstein_mode>  (1196) 
expansion

>  <fragmenstein_error>  (1196) 


$$$$
C8697-P35
     RDKit          3D

 32 35  0  0  0  0  0  0  0  0999 V2000
  -14.6626  -25.1262   28.4374 O   0  0  0  0  0  0  0  0  0  0  0  0
  -13.6700  -25.4615   28.9555 C   0  0  0  0  0  0  0  0  0  0  0  0
  -12.7242  -24.4559   29.7086 C   0  0  0  0  0  0  0  0  0  0  0  0
  -11.3318  -24.9112   30.0451 C   0  0  0  0  0  0  0  0  0  0  0  0
  -10.8194  -24.4173   31.1741 C   0  0  0  0  0  0  0  0  0  0  0  0
  -11.4819  -23.3888   31.8003 N   0  0  0  0  0  0  0  0  0  0  0  0
  -11.1619  -22.7201   32.9455 C   0  0  0  0  0  0  0  0  0  0  0  0
  -12.1195  -21.7462   33.0625 C   0  0  0  0  0  0  0  0  0  0  0  0
  -12.9973  -21.7924   32.0093 N   0  0  0  0  0  0  0  0  0  0  0  0
  -12.6288  -22.8131   31.2637 C   0  0  0  0  0  0  0  0  0  0  0  0
  -13.2669  -23.3711   30.1889 N   0  0  0  0  0  0  0  0  0  0  0  0
  -13.0963  -26.8164   29.1444 N   0  0  0  0  0  0  0  0  0  0  0  0
  -12.1703  -27.2201   27.9491 C   0  0  0  0  0  0  0  0  0  0  0  0
  -12.1656  -28.5694   28.6718 C   0  0  0  0  0  0  0  0  0  0  0  0
  -11.2316  -28.4659   29.9583 C   0  0  0  0  0  0  0  0  0  0  0  0
  -11.6152  -28.3310   31.2701 C   0  0  0  0  0  0  0  0  0  0  0  0
  -10.5725  -27.8752   32.0279 N   0  0  0  0  0  0  0  0  0  0  0  0
   -9.5491  -27.8091   31.2112 C   0  0  0  0  0  0  0  0  0  0  0  0
   -9.8903  -28.2090   29.9563 N   0  0  0  0  0  0  0  0  0  0  0  0
  -13.6508  -28.1626   28.8233 C   0  0  0  0  0  0  0  0  0  0  0  0
  -10.8153  -25.6727   29.5043 H   0  0  0  0  0  0  0  0  0  0  0  0
   -9.8855  -24.7518   31.6075 H   0  0  0  0  0  0  0  0  0  0  0  0
  -10.3162  -22.9876   33.5618 H   0  0  0  0  0  0  0  0  0  0  0  0
  -12.2232  -21.0091   33.8485 H   0  0  0  0  0  0  0  0  0  0  0  0
  -12.6657  -27.1518   26.9698 H   0  0  0  0  0  0  0  0  0  0  0  0
  -11.2158  -26.6988   27.8782 H   0  0  0  0  0  0  0  0  0  0  0  0
  -11.9843  -29.4433   28.0478 H   0  0  0  0  0  0  0  0  0  0  0  0
  -12.6052  -28.4366   31.6930 H   0  0  0  0  0  0  0  0  0  0  0  0
   -8.5500  -27.5256   31.5032 H   0  0  0  0  0  0  0  0  0  0  0  0
   -9.2727  -28.2853   29.1619 H   0  0  0  0  0  0  0  0  0  0  0  0
  -14.3073  -28.2007   27.9446 H   0  0  0  0  0  0  0  0  0  0  0  0
  -14.1732  -28.6153   29.6714 H   0  0  0  0  0  0  0  0  0  0  0  0
  1  2  2  0
  2  3  1  0
  3  4  1  0
  4  5  2  0
  5  6  1  0
  6  7  1  0
  7  8  2  0
  8  9  1  0
  9 10  2  0
 10 11  1  0
  2 12  1  0
 12 13  1  0
 13 14  1  0
 14 15  1  0
 15 16  2  0
 16 17  1  0
 17 18  2  0
 18 19  1  0
 14 20  1  0
 11  3  2  0
 20 12  1  0
 10  6  1  0
 19 15  1  0
  4 21  1  0
  5 22  1  0
  7 23  1  0
  8 24  1  0
 13 25  1  0
 13 26  1  0
 14 27  1  0
 16 28  1  0
 18 29  1  0
 19 30  1  0
 20 31  1  0
 20 32  1  0
M  END
>  <Energy>  (1197) 
128.46655275743433

>  <compound_id>  (1197) 
8697

>  <target_id>  (1197) 
1

>  <reference_id>  (1197) 
35

>  <inspiration_ids>  (1197) 
[107, 35]

>  <energy_score>  (1197) 
5.7438625393565985

>  <distance_score>  (1197) 
1.7908396363304302

>  <path>  (1197) 
/opt/xchem-fragalysis-2/maxwin/BulkDock/SCRATCH/511021/C8697-P35/C8697-P35.minimised.mol

>  <scratch_subdir>  (1197) 
/opt/xchem-fragalysis-2/maxwin/BulkDock/SCRATCH/511021/C8697-P35

>  <fragmenstein_runtime>  (1197) 
1.9830734729766846

>  <fragmenstein_outcome>  (1197) 
too moved

>  <fragmenstein_mode>  (1197) 
expansion

>  <fragmenstein_error>  (1197) 


$$$$
C47270-P107
     RDKit          3D

 35 37  0  0  0  0  0  0  0  0999 V2000
  -14.3559  -21.5346   34.0205 O   0  0  0  0  0  0  0  0  0  0  0  0
  -13.2684  -21.1594   33.8152 C   0  0  0  0  0  0  0  0  0  0  0  0
  -12.5180  -19.9120   34.3513 N   0  0  0  0  0  0  0  0  0  0  0  0
  -12.9260  -18.9062   35.3399 C   0  0  0  0  0  0  0  0  0  0  0  0
  -14.4532  -18.7379   35.3145 C   0  0  0  0  0  0  0  0  0  0  0  0
  -14.9930  -18.6789   33.9981 O   0  0  0  0  0  0  0  0  0  0  0  0
  -12.3104  -17.4985   35.3056 C   0  0  0  0  0  0  0  0  0  0  0  0
  -10.9016  -17.3560   35.7801 C   0  0  0  0  0  0  0  0  0  0  0  0
   -9.7821  -16.9765   35.0657 C   0  0  0  0  0  0  0  0  0  0  0  0
   -8.7718  -16.8414   35.9741 N   0  0  0  0  0  0  0  0  0  0  0  0
   -9.3181  -17.0317   37.2104 C   0  0  0  0  0  0  0  0  0  0  0  0
  -10.5992  -17.3363   37.1368 N   0  0  0  0  0  0  0  0  0  0  0  0
  -12.4614  -21.9559   32.8668 C   0  0  0  0  0  0  0  0  0  0  0  0
  -12.3904  -23.3387   32.8156 C   0  0  0  0  0  0  0  0  0  0  0  0
  -11.9775  -23.6363   31.5438 N   0  0  0  0  0  0  0  0  0  0  0  0
  -11.8003  -24.8577   30.9126 C   0  0  0  0  0  0  0  0  0  0  0  0
  -11.5460  -24.8732   29.5993 C   0  0  0  0  0  0  0  0  0  0  0  0
  -11.3251  -26.2835   28.6710 Cl  0  0  0  0  0  0  0  0  0  0  0  0
  -11.5000  -23.5388   28.9334 C   0  0  0  0  0  0  0  0  0  0  0  0
  -11.6077  -22.3843   29.5242 N   0  0  0  0  0  0  0  0  0  0  0  0
  -11.8138  -22.4266   30.8759 C   0  0  0  0  0  0  0  0  0  0  0  0
  -11.9057  -21.4269   31.7264 N   0  0  0  0  0  0  0  0  0  0  0  0
  -11.6082  -19.8444   33.9029 H   0  0  0  0  0  0  0  0  0  0  0  0
  -12.6630  -19.3177   36.3112 H   0  0  0  0  0  0  0  0  0  0  0  0
  -14.7577  -17.8165   35.8239 H   0  0  0  0  0  0  0  0  0  0  0  0
  -15.0040  -19.5127   35.8364 H   0  0  0  0  0  0  0  0  0  0  0  0
  -15.1783  -19.6145   33.7628 H   0  0  0  0  0  0  0  0  0  0  0  0
  -12.8796  -16.8689   36.0074 H   0  0  0  0  0  0  0  0  0  0  0  0
  -12.4835  -17.0125   34.3470 H   0  0  0  0  0  0  0  0  0  0  0  0
   -9.6103  -16.7591   34.0237 H   0  0  0  0  0  0  0  0  0  0  0  0
   -7.8167  -16.5926   35.7528 H   0  0  0  0  0  0  0  0  0  0  0  0
   -8.7360  -16.9440   38.1174 H   0  0  0  0  0  0  0  0  0  0  0  0
  -12.7451  -24.0983   33.4995 H   0  0  0  0  0  0  0  0  0  0  0  0
  -11.9068  -25.7474   31.5176 H   0  0  0  0  0  0  0  0  0  0  0  0
  -11.3443  -23.5540   27.8413 H   0  0  0  0  0  0  0  0  0  0  0  0
  1  2  2  0
  2  3  1  0
  3  4  1  0
  4  5  1  0
  5  6  1  0
  4  7  1  0
  7  8  1  0
  8  9  2  0
  9 10  1  0
 10 11  1  0
 11 12  2  0
  2 13  1  0
 13 14  2  0
 14 15  1  0
 15 16  1  0
 16 17  2  0
 17 18  1  0
 17 19  1  0
 19 20  2  0
 20 21  1  0
 21 22  2  0
 12  8  1  0
 22 13  1  0
 21 15  1  0
  3 23  1  0
  4 24  1  0
  5 25  1  0
  5 26  1  0
  6 27  1  0
  7 28  1  0
  7 29  1  0
  9 30  1  0
 10 31  1  0
 11 32  1  0
 14 33  1  0
 16 34  1  0
 19 35  1  0
M  END
>  <Energy>  (1198) 
82.470418914015482

>  <compound_id>  (1198) 
47270

>  <target_id>  (1198) 
1

>  <reference_id>  (1198) 
107

>  <inspiration_ids>  (1198) 
[107, 35]

>  <energy_score>  (1198) 
-4.61369357087051

>  <distance_score>  (1198) 
2.0717861837467417

>  <path>  (1198) 
/opt/xchem-fragalysis-2/maxwin/BulkDock/SCRATCH/511021/C47270-P107/C47270-P107.minimised.mol

>  <scratch_subdir>  (1198) 
/opt/xchem-fragalysis-2/maxwin/BulkDock/SCRATCH/511021/C47270-P107

>  <fragmenstein_runtime>  (1198) 
3.9206669330596924

>  <fragmenstein_outcome>  (1198) 
too moved

>  <fragmenstein_mode>  (1198) 
expansion

>  <fragmenstein_error>  (1198) 


$$$$
C47270-P35
     RDKit          3D

 35 37  0  0  0  0  0  0  0  0999 V2000
  -13.4561  -21.6858   33.7048 O   0  0  0  0  0  0  0  0  0  0  0  0
  -12.5224  -21.7446   33.0227 C   0  0  0  0  0  0  0  0  0  0  0  0
  -11.0871  -21.3173   33.2778 N   0  0  0  0  0  0  0  0  0  0  0  0
  -10.4601  -20.8071   34.4691 C   0  0  0  0  0  0  0  0  0  0  0  0
  -10.3866  -21.9389   35.5035 C   0  0  0  0  0  0  0  0  0  0  0  0
  -11.6493  -22.4102   35.9610 O   0  0  0  0  0  0  0  0  0  0  0  0
  -11.1595  -19.5623   35.0392 C   0  0  0  0  0  0  0  0  0  0  0  0
  -10.1546  -18.5111   35.3246 C   0  0  0  0  0  0  0  0  0  0  0  0
  -10.1914  -17.1735   35.0194 C   0  0  0  0  0  0  0  0  0  0  0  0
   -8.8968  -16.7535   35.1129 N   0  0  0  0  0  0  0  0  0  0  0  0
   -8.1761  -17.8017   35.5905 C   0  0  0  0  0  0  0  0  0  0  0  0
   -8.9274  -18.8481   35.8285 N   0  0  0  0  0  0  0  0  0  0  0  0
  -12.5338  -22.3804   31.7220 C   0  0  0  0  0  0  0  0  0  0  0  0
  -13.0542  -23.6223   31.4468 C   0  0  0  0  0  0  0  0  0  0  0  0
  -12.5348  -23.9537   30.2340 N   0  0  0  0  0  0  0  0  0  0  0  0
  -12.5698  -25.1557   29.5508 C   0  0  0  0  0  0  0  0  0  0  0  0
  -12.0017  -25.2179   28.3422 C   0  0  0  0  0  0  0  0  0  0  0  0
  -11.9520  -26.6123   27.3645 Cl  0  0  0  0  0  0  0  0  0  0  0  0
  -11.4258  -23.9409   27.8325 C   0  0  0  0  0  0  0  0  0  0  0  0
  -11.3609  -22.8179   28.4809 N   0  0  0  0  0  0  0  0  0  0  0  0
  -11.8843  -22.8285   29.7360 C   0  0  0  0  0  0  0  0  0  0  0  0
  -11.8075  -21.8974   30.6574 N   0  0  0  0  0  0  0  0  0  0  0  0
  -10.5411  -21.4386   32.4274 H   0  0  0  0  0  0  0  0  0  0  0  0
   -9.4361  -20.5810   34.1478 H   0  0  0  0  0  0  0  0  0  0  0  0
   -9.8637  -22.8013   35.0752 H   0  0  0  0  0  0  0  0  0  0  0  0
   -9.8179  -21.6166   36.3817 H   0  0  0  0  0  0  0  0  0  0  0  0
  -12.3492  -22.1486   35.3304 H   0  0  0  0  0  0  0  0  0  0  0  0
  -11.6992  -19.7801   35.9611 H   0  0  0  0  0  0  0  0  0  0  0  0
  -11.8983  -19.1732   34.3306 H   0  0  0  0  0  0  0  0  0  0  0  0
  -10.9570  -16.5414   34.5977 H   0  0  0  0  0  0  0  0  0  0  0  0
   -8.5389  -15.8598   34.7877 H   0  0  0  0  0  0  0  0  0  0  0  0
   -7.1109  -17.7629   35.7082 H   0  0  0  0  0  0  0  0  0  0  0  0
  -13.6484  -24.2993   32.0412 H   0  0  0  0  0  0  0  0  0  0  0  0
  -13.0575  -25.9916   30.0345 H   0  0  0  0  0  0  0  0  0  0  0  0
  -11.0233  -23.9770   26.8067 H   0  0  0  0  0  0  0  0  0  0  0  0
  1  2  2  0
  2  3  1  0
  3  4  1  0
  4  5  1  0
  5  6  1  0
  4  7  1  0
  7  8  1  0
  8  9  2  0
  9 10  1  0
 10 11  1  0
 11 12  2  0
  2 13  1  0
 13 14  2  0
 14 15  1  0
 15 16  1  0
 16 17  2  0
 17 18  1  0
 17 19  1  0
 19 20  2  0
 20 21  1  0
 21 22  2  0
 12  8  1  0
 22 13  1  0
 21 15  1  0
  3 23  1  0
  4 24  1  0
  5 25  1  0
  5 26  1  0
  6 27  1  0
  7 28  1  0
  7 29  1  0
  9 30  1  0
 10 31  1  0
 11 32  1  0
 14 33  1  0
 16 34  1  0
 19 35  1  0
M  END
>  <Energy>  (1199) 
70.220264954725522

>  <compound_id>  (1199) 
47270

>  <target_id>  (1199) 
1

>  <reference_id>  (1199) 
35

>  <inspiration_ids>  (1199) 
[107, 35]

>  <energy_score>  (1199) 
-16.863847530159546

>  <distance_score>  (1199) 
2.0043634491323123

>  <path>  (1199) 
/opt/xchem-fragalysis-2/maxwin/BulkDock/SCRATCH/511021/C47270-P35/C47270-P35.minimised.mol

>  <scratch_subdir>  (1199) 
/opt/xchem-fragalysis-2/maxwin/BulkDock/SCRATCH/511021/C47270-P35

>  <fragmenstein_runtime>  (1199) 
3.576129913330078

>  <fragmenstein_outcome>  (1199) 
too moved

>  <fragmenstein_mode>  (1199) 
expansion

>  <fragmenstein_error>  (1199) 


$$$$
C19455-P107
     RDKit          3D

 38 40  0  0  0  0  0  0  0  0999 V2000
  -13.2500  -25.1031   26.5494 C   0  0  0  0  0  0  0  0  0  0  0  0
  -12.7686  -25.9364   27.7176 C   0  0  0  0  0  0  0  0  0  0  0  0
  -11.3675  -26.5144   27.4584 C   0  0  0  0  0  0  0  0  0  0  0  0
  -10.8606  -26.8480   28.7356 N   0  0  0  0  0  0  0  0  0  0  0  0
  -11.4222  -27.6237   29.7919 C   0  0  0  0  0  0  0  0  0  0  0  0
  -12.4316  -28.2618   29.8408 O   0  0  0  0  0  0  0  0  0  0  0  0
  -10.5748  -27.4354   30.9297 C   0  0  0  0  0  0  0  0  0  0  0  0
   -9.2178  -27.3911   30.9333 C   0  0  0  0  0  0  0  0  0  0  0  0
   -8.7895  -26.1518   31.3884 N   0  0  0  0  0  0  0  0  0  0  0  0
   -9.8003  -25.6932   32.0666 C   0  0  0  0  0  0  0  0  0  0  0  0
  -10.8006  -26.6600   32.0542 N   0  0  0  0  0  0  0  0  0  0  0  0
  -12.9295  -25.2956   29.0634 N   0  0  0  0  0  0  0  0  0  0  0  0
  -11.9633  -24.7621   29.9712 C   0  0  0  0  0  0  0  0  0  0  0  0
  -10.7847  -24.6174   29.8556 O   0  0  0  0  0  0  0  0  0  0  0  0
  -12.6032  -24.2285   31.2057 C   0  0  0  0  0  0  0  0  0  0  0  0
  -12.5564  -24.3441   32.5876 C   0  0  0  0  0  0  0  0  0  0  0  0
  -12.4151  -23.1044   33.1784 N   0  0  0  0  0  0  0  0  0  0  0  0
  -12.3096  -22.3278   32.1314 C   0  0  0  0  0  0  0  0  0  0  0  0
  -11.3417  -21.4355   31.8008 N   0  0  0  0  0  0  0  0  0  0  0  0
  -11.1566  -21.3471   30.5191 C   0  0  0  0  0  0  0  0  0  0  0  0
  -11.9838  -21.8518   29.4174 C   0  0  0  0  0  0  0  0  0  0  0  0
  -11.4018  -22.0967   27.8598 Cl  0  0  0  0  0  0  0  0  0  0  0  0
  -13.0735  -22.4715   29.8392 C   0  0  0  0  0  0  0  0  0  0  0  0
  -13.0259  -22.9311   31.1154 N   0  0  0  0  0  0  0  0  0  0  0  0
  -13.0427  -25.6078   25.5999 H   0  0  0  0  0  0  0  0  0  0  0  0
  -12.7782  -24.1215   26.5187 H   0  0  0  0  0  0  0  0  0  0  0  0
  -14.3337  -24.9791   26.6084 H   0  0  0  0  0  0  0  0  0  0  0  0
  -13.4471  -26.7980   27.7704 H   0  0  0  0  0  0  0  0  0  0  0  0
  -10.7029  -25.7578   27.0308 H   0  0  0  0  0  0  0  0  0  0  0  0
  -11.3731  -27.3858   26.8147 H   0  0  0  0  0  0  0  0  0  0  0  0
  -10.0265  -26.3712   29.0804 H   0  0  0  0  0  0  0  0  0  0  0  0
   -8.5653  -28.0846   30.4458 H   0  0  0  0  0  0  0  0  0  0  0  0
   -9.8301  -24.7995   32.6745 H   0  0  0  0  0  0  0  0  0  0  0  0
  -10.7872  -27.1637   32.9151 H   0  0  0  0  0  0  0  0  0  0  0  0
  -13.8413  -25.1894   29.4611 H   0  0  0  0  0  0  0  0  0  0  0  0
  -12.4239  -25.1974   33.2179 H   0  0  0  0  0  0  0  0  0  0  0  0
  -10.3316  -20.7754   30.1611 H   0  0  0  0  0  0  0  0  0  0  0  0
  -13.6845  -23.0594   29.1702 H   0  0  0  0  0  0  0  0  0  0  0  0
  1  2  1  0
  2  3  1  0
  3  4  1  0
  4  5  1  0
  5  6  2  0
  5  7  1  0
  7  8  2  0
  8  9  1  0
  9 10  2  0
 10 11  1  0
  2 12  1  0
 12 13  1  0
 13 14  2  0
 13 15  1  0
 15 16  2  0
 16 17  1  0
 17 18  2  0
 18 19  1  0
 19 20  2  0
 20 21  1  0
 21 22  1  0
 21 23  2  0
 23 24  1  0
 11  7  1  0
 24 15  1  0
 24 18  1  0
  1 25  1  0
  1 26  1  0
  1 27  1  0
  2 28  1  0
  3 29  1  0
  3 30  1  0
  4 31  1  0
  8 32  1  0
 10 33  1  0
 11 34  1  0
 12 35  1  0
 16 36  1  0
 20 37  1  0
 23 38  1  0
M  END
>  <Energy>  (1200) 
134.51345265094349

>  <compound_id>  (1200) 
19455

>  <target_id>  (1200) 
1

>  <reference_id>  (1200) 
107

>  <inspiration_ids>  (1200) 
[107, 35]

>  <energy_score>  (1200) 
146.81340618943156

>  <distance_score>  (1200) 
2.6850863404619765

>  <path>  (1200) 
/opt/xchem-fragalysis-2/maxwin/BulkDock/SCRATCH/511021/C19455-P107/C19455-P107.minimised.mol

>  <scratch_subdir>  (1200) 
/opt/xchem-fragalysis-2/maxwin/BulkDock/SCRATCH/511021/C19455-P107

>  <fragmenstein_runtime>  (1200) 
4.679556846618652

>  <fragmenstein_outcome>  (1200) 
too moved

>  <fragmenstein_mode>  (1200) 
expansion

>  <fragmenstein_error>  (1200) 


$$$$
C19455-P35
     RDKit          3D

 38 40  0  0  0  0  0  0  0  0999 V2000
  -17.0346  -26.8901   30.0655 C   0  0  0  0  0  0  0  0  0  0  0  0
  -15.7564  -27.1780   30.8399 C   0  0  0  0  0  0  0  0  0  0  0  0
  -14.9258  -28.2903   30.1585 C   0  0  0  0  0  0  0  0  0  0  0  0
  -13.5229  -28.1271   30.4885 N   0  0  0  0  0  0  0  0  0  0  0  0
  -12.2863  -28.0574   29.5812 C   0  0  0  0  0  0  0  0  0  0  0  0
  -12.1864  -28.1964   28.4308 O   0  0  0  0  0  0  0  0  0  0  0  0
  -11.1644  -27.6693   30.3997 C   0  0  0  0  0  0  0  0  0  0  0  0
  -11.0570  -26.7347   31.4105 C   0  0  0  0  0  0  0  0  0  0  0  0
   -9.8591  -26.8007   32.0417 N   0  0  0  0  0  0  0  0  0  0  0  0
   -9.1856  -27.6874   31.3597 C   0  0  0  0  0  0  0  0  0  0  0  0
   -9.8881  -28.1478   30.2864 N   0  0  0  0  0  0  0  0  0  0  0  0
  -14.9321  -25.9946   30.9724 N   0  0  0  0  0  0  0  0  0  0  0  0
  -15.1887  -24.6812   31.7158 C   0  0  0  0  0  0  0  0  0  0  0  0
  -16.1340  -24.3065   32.2782 O   0  0  0  0  0  0  0  0  0  0  0  0
  -14.0362  -23.7871   31.5577 C   0  0  0  0  0  0  0  0  0  0  0  0
  -13.6837  -22.7677   32.4304 C   0  0  0  0  0  0  0  0  0  0  0  0
  -12.6596  -22.0032   31.9545 N   0  0  0  0  0  0  0  0  0  0  0  0
  -12.3860  -22.4837   30.7676 C   0  0  0  0  0  0  0  0  0  0  0  0
  -11.5599  -21.9445   29.8263 N   0  0  0  0  0  0  0  0  0  0  0  0
  -11.4170  -22.6218   28.7301 C   0  0  0  0  0  0  0  0  0  0  0  0
  -12.0692  -23.9052   28.4064 C   0  0  0  0  0  0  0  0  0  0  0  0
  -11.7941  -24.6401   26.8958 Cl  0  0  0  0  0  0  0  0  0  0  0  0
  -12.9636  -24.3280   29.3032 C   0  0  0  0  0  0  0  0  0  0  0  0
  -13.1404  -23.6325   30.5037 N   0  0  0  0  0  0  0  0  0  0  0  0
  -17.6299  -26.1175   30.5635 H   0  0  0  0  0  0  0  0  0  0  0  0
  -17.6505  -27.7915   29.9836 H   0  0  0  0  0  0  0  0  0  0  0  0
  -16.8125  -26.5336   29.0539 H   0  0  0  0  0  0  0  0  0  0  0  0
  -16.0267  -27.4668   31.8581 H   0  0  0  0  0  0  0  0  0  0  0  0
  -15.0078  -28.2390   29.0676 H   0  0  0  0  0  0  0  0  0  0  0  0
  -15.2524  -29.2818   30.4853 H   0  0  0  0  0  0  0  0  0  0  0  0
  -13.2376  -28.0383   31.4559 H   0  0  0  0  0  0  0  0  0  0  0  0
  -11.8001  -26.0266   31.7406 H   0  0  0  0  0  0  0  0  0  0  0  0
   -8.2059  -28.0657   31.6160 H   0  0  0  0  0  0  0  0  0  0  0  0
   -9.5571  -28.8252   29.6126 H   0  0  0  0  0  0  0  0  0  0  0  0
  -13.9743  -26.0270   30.6705 H   0  0  0  0  0  0  0  0  0  0  0  0
  -14.1626  -22.5332   33.3740 H   0  0  0  0  0  0  0  0  0  0  0  0
  -10.7681  -22.2047   27.9513 H   0  0  0  0  0  0  0  0  0  0  0  0
  -13.5883  -25.1737   29.0670 H   0  0  0  0  0  0  0  0  0  0  0  0
  1  2  1  0
  2  3  1  0
  3  4  1  0
  4  5  1  0
  5  6  2  0
  5  7  1  0
  7  8  2  0
  8  9  1  0
  9 10  2  0
 10 11  1  0
  2 12  1  0
 12 13  1  0
 13 14  2  0
 13 15  1  0
 15 16  2  0
 16 17  1  0
 17 18  2  0
 18 19  1  0
 19 20  2  0
 20 21  1  0
 21 22  1  0
 21 23  2  0
 23 24  1  0
 11  7  1  0
 24 15  1  0
 24 18  1  0
  1 25  1  0
  1 26  1  0
  1 27  1  0
  2 28  1  0
  3 29  1  0
  3 30  1  0
  4 31  1  0
  8 32  1  0
 10 33  1  0
 11 34  1  0
 12 35  1  0
 16 36  1  0
 20 37  1  0
 23 38  1  0
M  END
>  <Energy>  (1201) 
-4.1373400115761312

>  <compound_id>  (1201) 
19455

>  <target_id>  (1201) 
1

>  <reference_id>  (1201) 
35

>  <inspiration_ids>  (1201) 
[107, 35]

>  <energy_score>  (1201) 
-4.815486092878643

>  <distance_score>  (1201) 
2.584909747299577

>  <path>  (1201) 
/opt/xchem-fragalysis-2/maxwin/BulkDock/SCRATCH/511021/C19455-P35/C19455-P35.minimised.mol

>  <scratch_subdir>  (1201) 
/opt/xchem-fragalysis-2/maxwin/BulkDock/SCRATCH/511021/C19455-P35

>  <fragmenstein_runtime>  (1201) 
5.468007802963257

>  <fragmenstein_outcome>  (1201) 
too moved

>  <fragmenstein_mode>  (1201) 
expansion

>  <fragmenstein_error>  (1201) 


$$$$
C62297-P107
     RDKit          3D

 39 41  0  0  0  0  0  0  0  0999 V2000
   -9.1436  -25.1734   32.0350 N   0  0  0  0  0  0  0  0  0  0  0  0
  -10.3051  -24.9493   32.9051 C   0  0  0  0  0  0  0  0  0  0  0  0
  -10.1654  -25.4025   34.3278 C   0  0  0  0  0  0  0  0  0  0  0  0
   -8.9584  -25.1606   35.2196 C   0  0  0  0  0  0  0  0  0  0  0  0
   -8.1535  -24.1847   35.6861 C   0  0  0  0  0  0  0  0  0  0  0  0
   -7.4369  -24.4738   36.8192 N   0  0  0  0  0  0  0  0  0  0  0  0
   -7.3863  -25.7386   36.3912 C   0  0  0  0  0  0  0  0  0  0  0  0
   -8.6605  -25.9191   36.2228 N   0  0  0  0  0  0  0  0  0  0  0  0
  -10.8862  -23.5190   32.8290 C   0  0  0  0  0  0  0  0  0  0  0  0
  -10.2300  -22.6756   32.3062 O   0  0  0  0  0  0  0  0  0  0  0  0
  -12.2169  -23.4758   33.3467 N   0  0  0  0  0  0  0  0  0  0  0  0
  -13.2017  -22.4410   33.3113 C   0  0  0  0  0  0  0  0  0  0  0  0
  -13.8448  -22.3515   31.9284 C   0  0  0  0  0  0  0  0  0  0  0  0
  -13.0524  -22.9293   30.7902 C   0  0  0  0  0  0  0  0  0  0  0  0
  -12.6654  -24.2409   30.6340 C   0  0  0  0  0  0  0  0  0  0  0  0
  -12.0207  -24.3299   29.4537 N   0  0  0  0  0  0  0  0  0  0  0  0
  -11.4815  -25.4453   28.8402 C   0  0  0  0  0  0  0  0  0  0  0  0
  -11.0558  -25.3398   27.5791 C   0  0  0  0  0  0  0  0  0  0  0  0
  -11.2478  -23.9888   26.9823 C   0  0  0  0  0  0  0  0  0  0  0  0
  -11.6802  -22.9196   27.5772 N   0  0  0  0  0  0  0  0  0  0  0  0
  -12.0688  -23.0749   28.8737 C   0  0  0  0  0  0  0  0  0  0  0  0
  -12.5980  -22.2013   29.7146 N   0  0  0  0  0  0  0  0  0  0  0  0
   -8.4518  -24.4647   32.2661 H   0  0  0  0  0  0  0  0  0  0  0  0
   -8.7261  -26.0796   32.2847 H   0  0  0  0  0  0  0  0  0  0  0  0
  -11.0745  -25.5879   32.4578 H   0  0  0  0  0  0  0  0  0  0  0  0
  -10.4059  -26.4613   34.2810 H   0  0  0  0  0  0  0  0  0  0  0  0
  -11.0120  -25.0245   34.8882 H   0  0  0  0  0  0  0  0  0  0  0  0
   -7.9310  -23.2892   35.1934 H   0  0  0  0  0  0  0  0  0  0  0  0
   -6.7231  -23.8696   37.2110 H   0  0  0  0  0  0  0  0  0  0  0  0
   -6.5824  -26.4208   36.1530 H   0  0  0  0  0  0  0  0  0  0  0  0
  -12.4852  -24.4059   33.6467 H   0  0  0  0  0  0  0  0  0  0  0  0
  -12.6948  -21.4980   33.5409 H   0  0  0  0  0  0  0  0  0  0  0  0
  -13.9619  -22.6399   34.0698 H   0  0  0  0  0  0  0  0  0  0  0  0
  -14.1571  -21.3295   31.7394 H   0  0  0  0  0  0  0  0  0  0  0  0
  -14.8003  -22.8693   31.9872 H   0  0  0  0  0  0  0  0  0  0  0  0
  -12.7941  -25.0985   31.2648 H   0  0  0  0  0  0  0  0  0  0  0  0
  -11.4371  -26.3599   29.4162 H   0  0  0  0  0  0  0  0  0  0  0  0
  -10.6215  -26.1429   27.0062 H   0  0  0  0  0  0  0  0  0  0  0  0
  -10.9899  -23.9317   25.9135 H   0  0  0  0  0  0  0  0  0  0  0  0
  1  2  1  0
  2  3  1  0
  3  4  1  0
  4  5  2  0
  5  6  1  0
  6  7  1  0
  7  8  2  0
  2  9  1  0
  9 10  2  0
  9 11  1  0
 11 12  1  0
 12 13  1  0
 13 14  1  0
 14 15  2  0
 15 16  1  0
 16 17  1  0
 17 18  2  0
 18 19  1  0
 19 20  2  0
 20 21  1  0
 21 22  2  0
  8  4  1  0
 22 14  1  0
 21 16  1  0
  1 23  1  0
  1 24  1  0
  2 25  1  0
  3 26  1  0
  3 27  1  0
  5 28  1  0
  6 29  1  0
  7 30  1  0
 11 31  1  0
 12 32  1  0
 12 33  1  0
 13 34  1  0
 13 35  1  0
 15 36  1  0
 17 37  1  0
 18 38  1  0
 19 39  1  0
M  END
>  <Energy>  (1202) 
170.54666227772981

>  <compound_id>  (1202) 
62297

>  <target_id>  (1202) 
1

>  <reference_id>  (1202) 
107

>  <inspiration_ids>  (1202) 
[107, 35]

>  <energy_score>  (1202) 
51.543717172535025

>  <distance_score>  (1202) 
2.713702196602432

>  <path>  (1202) 
/opt/xchem-fragalysis-2/maxwin/BulkDock/SCRATCH/511021/C62297-P107/C62297-P107.minimised.mol

>  <scratch_subdir>  (1202) 
/opt/xchem-fragalysis-2/maxwin/BulkDock/SCRATCH/511021/C62297-P107

>  <fragmenstein_runtime>  (1202) 
10.637413740158081

>  <fragmenstein_outcome>  (1202) 
too moved

>  <fragmenstein_mode>  (1202) 
expansion

>  <fragmenstein_error>  (1202) 


$$$$
C62297-P35
     RDKit          3D

 39 41  0  0  0  0  0  0  0  0999 V2000
   -8.7091  -16.7952   36.5353 N   0  0  0  0  0  0  0  0  0  0  0  0
   -9.5531  -18.0224   36.6188 C   0  0  0  0  0  0  0  0  0  0  0  0
   -9.4887  -18.6576   38.0204 C   0  0  0  0  0  0  0  0  0  0  0  0
  -10.4392  -17.9648   38.9466 C   0  0  0  0  0  0  0  0  0  0  0  0
  -10.1802  -17.0676   39.9666 C   0  0  0  0  0  0  0  0  0  0  0  0
  -11.4148  -16.6620   40.4086 N   0  0  0  0  0  0  0  0  0  0  0  0
  -12.3545  -17.3510   39.6994 C   0  0  0  0  0  0  0  0  0  0  0  0
  -11.7981  -18.1741   38.8360 N   0  0  0  0  0  0  0  0  0  0  0  0
   -9.0888  -18.9962   35.5047 C   0  0  0  0  0  0  0  0  0  0  0  0
   -8.0921  -18.8362   34.9161 O   0  0  0  0  0  0  0  0  0  0  0  0
  -10.1638  -20.1197   35.3861 N   0  0  0  0  0  0  0  0  0  0  0  0
  -10.1786  -21.3228   34.5811 C   0  0  0  0  0  0  0  0  0  0  0  0
  -11.5366  -21.5083   33.9304 C   0  0  0  0  0  0  0  0  0  0  0  0
  -11.5377  -22.3767   32.7174 C   0  0  0  0  0  0  0  0  0  0  0  0
  -11.1378  -23.6871   32.5533 C   0  0  0  0  0  0  0  0  0  0  0  0
  -11.3326  -23.9626   31.2273 N   0  0  0  0  0  0  0  0  0  0  0  0
  -11.0277  -25.1061   30.5051 C   0  0  0  0  0  0  0  0  0  0  0  0
  -11.2059  -25.1070   29.1763 C   0  0  0  0  0  0  0  0  0  0  0  0
  -11.7694  -23.8458   28.6134 C   0  0  0  0  0  0  0  0  0  0  0  0
  -12.0898  -22.7794   29.2816 N   0  0  0  0  0  0  0  0  0  0  0  0
  -11.8610  -22.8242   30.6298 C   0  0  0  0  0  0  0  0  0  0  0  0
  -12.0030  -21.8705   31.5225 N   0  0  0  0  0  0  0  0  0  0  0  0
   -8.6652  -16.5598   35.5416 H   0  0  0  0  0  0  0  0  0  0  0  0
   -7.7333  -17.0883   36.7259 H   0  0  0  0  0  0  0  0  0  0  0  0
  -10.5820  -17.7251   36.3734 H   0  0  0  0  0  0  0  0  0  0  0  0
   -8.4605  -18.5961   38.4164 H   0  0  0  0  0  0  0  0  0  0  0  0
   -9.7543  -19.7334   38.0100 H   0  0  0  0  0  0  0  0  0  0  0  0
   -9.2558  -16.6491   40.3545 H   0  0  0  0  0  0  0  0  0  0  0  0
  -11.5919  -15.9512   41.1156 H   0  0  0  0  0  0  0  0  0  0  0  0
  -13.4182  -17.2449   39.8459 H   0  0  0  0  0  0  0  0  0  0  0  0
  -10.8640  -19.9964   36.1082 H   0  0  0  0  0  0  0  0  0  0  0  0
   -9.9419  -22.1670   35.2414 H   0  0  0  0  0  0  0  0  0  0  0  0
   -9.3799  -21.2275   33.8285 H   0  0  0  0  0  0  0  0  0  0  0  0
  -11.9298  -20.5319   33.6392 H   0  0  0  0  0  0  0  0  0  0  0  0
  -12.2610  -21.8988   34.6581 H   0  0  0  0  0  0  0  0  0  0  0  0
  -10.7201  -24.4157   33.2302 H   0  0  0  0  0  0  0  0  0  0  0  0
  -10.6245  -25.9462   31.0494 H   0  0  0  0  0  0  0  0  0  0  0  0
  -10.9751  -25.9370   28.5250 H   0  0  0  0  0  0  0  0  0  0  0  0
  -11.9138  -23.8426   27.5195 H   0  0  0  0  0  0  0  0  0  0  0  0
  1  2  1  0
  2  3  1  0
  3  4  1  0
  4  5  2  0
  5  6  1  0
  6  7  1  0
  7  8  2  0
  2  9  1  0
  9 10  2  0
  9 11  1  0
 11 12  1  0
 12 13  1  0
 13 14  1  0
 14 15  2  0
 15 16  1  0
 16 17  1  0
 17 18  2  0
 18 19  1  0
 19 20  2  0
 20 21  1  0
 21 22  2  0
  8  4  1  0
 22 14  1  0
 21 16  1  0
  1 23  1  0
  1 24  1  0
  2 25  1  0
  3 26  1  0
  3 27  1  0
  5 28  1  0
  6 29  1  0
  7 30  1  0
 11 31  1  0
 12 32  1  0
 12 33  1  0
 13 34  1  0
 13 35  1  0
 15 36  1  0
 17 37  1  0
 18 38  1  0
 19 39  1  0
M  END
>  <Energy>  (1203) 
83.94746130202968

>  <compound_id>  (1203) 
62297

>  <target_id>  (1203) 
1

>  <reference_id>  (1203) 
35

>  <inspiration_ids>  (1203) 
[107, 35]

>  <energy_score>  (1203) 
-20.018758069101978

>  <distance_score>  (1203) 
1.2172787950803161

>  <path>  (1203) 
/opt/xchem-fragalysis-2/maxwin/BulkDock/SCRATCH/511021/C62297-P35/C62297-P35.minimised.mol

>  <scratch_subdir>  (1203) 
/opt/xchem-fragalysis-2/maxwin/BulkDock/SCRATCH/511021/C62297-P35

>  <fragmenstein_runtime>  (1203) 
5.626326322555542

>  <fragmenstein_outcome>  (1203) 
too moved

>  <fragmenstein_mode>  (1203) 
expansion

>  <fragmenstein_error>  (1203) 


$$$$
C19457-P107
     RDKit          3D

 39 41  0  0  0  0  0  0  0  0999 V2000
  -11.3504  -24.5475   33.7789 O   0  0  0  0  0  0  0  0  0  0  0  0
  -12.2018  -24.5352   32.9854 C   0  0  0  0  0  0  0  0  0  0  0  0
  -13.5234  -23.7505   32.9531 N   0  0  0  0  0  0  0  0  0  0  0  0
  -14.0324  -22.7444   33.8415 C   0  0  0  0  0  0  0  0  0  0  0  0
  -12.9573  -21.6286   33.6299 C   0  0  0  0  0  0  0  0  0  0  0  0
  -13.1425  -20.1911   34.1308 C   0  0  0  0  0  0  0  0  0  0  0  0
  -12.8193  -19.8648   35.4662 O   0  0  0  0  0  0  0  0  0  0  0  0
  -12.6661  -21.7130   32.1773 N   0  0  0  0  0  0  0  0  0  0  0  0
  -11.3998  -21.4400   31.4169 C   0  0  0  0  0  0  0  0  0  0  0  0
  -10.3862  -21.0293   31.7768 O   0  0  0  0  0  0  0  0  0  0  0  0
  -11.5474  -21.8797   30.0462 C   0  0  0  0  0  0  0  0  0  0  0  0
  -11.1009  -23.0745   29.5567 C   0  0  0  0  0  0  0  0  0  0  0  0
  -11.0098  -23.1633   28.2117 N   0  0  0  0  0  0  0  0  0  0  0  0
  -11.5739  -22.0604   27.8356 C   0  0  0  0  0  0  0  0  0  0  0  0
  -11.9034  -21.2618   28.8970 N   0  0  0  0  0  0  0  0  0  0  0  0
  -12.1176  -25.2431   31.7338 C   0  0  0  0  0  0  0  0  0  0  0  0
  -11.1777  -26.1297   31.2755 C   0  0  0  0  0  0  0  0  0  0  0  0
  -11.3594  -26.1379   29.9184 N   0  0  0  0  0  0  0  0  0  0  0  0
  -10.5379  -26.6113   28.9241 C   0  0  0  0  0  0  0  0  0  0  0  0
  -10.8596  -26.3764   27.6461 C   0  0  0  0  0  0  0  0  0  0  0  0
  -12.1457  -25.6626   27.4206 C   0  0  0  0  0  0  0  0  0  0  0  0
  -12.9584  -25.2458   28.3382 N   0  0  0  0  0  0  0  0  0  0  0  0
  -12.4906  -25.3932   29.6128 C   0  0  0  0  0  0  0  0  0  0  0  0
  -12.8719  -24.7470   30.6825 N   0  0  0  0  0  0  0  0  0  0  0  0
  -14.0781  -24.0456   32.1386 H   0  0  0  0  0  0  0  0  0  0  0  0
  -14.1282  -23.1944   34.8143 H   0  0  0  0  0  0  0  0  0  0  0  0
  -15.0119  -22.4263   33.4729 H   0  0  0  0  0  0  0  0  0  0  0  0
  -12.0374  -21.9857   34.0997 H   0  0  0  0  0  0  0  0  0  0  0  0
  -12.3894  -19.5885   33.6294 H   0  0  0  0  0  0  0  0  0  0  0  0
  -14.1530  -19.8283   33.9250 H   0  0  0  0  0  0  0  0  0  0  0  0
  -11.8523  -19.9783   35.5462 H   0  0  0  0  0  0  0  0  0  0  0  0
  -13.3442  -22.1533   31.5586 H   0  0  0  0  0  0  0  0  0  0  0  0
  -10.6820  -23.8360   30.1876 H   0  0  0  0  0  0  0  0  0  0  0  0
  -11.7092  -21.7670   26.8101 H   0  0  0  0  0  0  0  0  0  0  0  0
  -12.1832  -20.3030   28.7798 H   0  0  0  0  0  0  0  0  0  0  0  0
  -10.3427  -26.6134   31.7573 H   0  0  0  0  0  0  0  0  0  0  0  0
   -9.6345  -27.1133   29.2309 H   0  0  0  0  0  0  0  0  0  0  0  0
  -10.2673  -26.6858   26.8021 H   0  0  0  0  0  0  0  0  0  0  0  0
  -12.4224  -25.5239   26.3625 H   0  0  0  0  0  0  0  0  0  0  0  0
  1  2  2  0
  2  3  1  0
  3  4  1  0
  4  5  1  0
  5  6  1  0
  6  7  1  0
  5  8  1  0
  8  9  1  0
  9 10  2  0
  9 11  1  0
 11 12  2  0
 12 13  1  0
 13 14  2  0
 14 15  1  0
  2 16  1  0
 16 17  2  0
 17 18  1  0
 18 19  1  0
 19 20  2  0
 20 21  1  0
 21 22  2  0
 22 23  1  0
 23 24  2  0
 15 11  1  0
 24 16  1  0
 23 18  1  0
  3 25  1  0
  4 26  1  0
  4 27  1  0
  5 28  1  0
  6 29  1  0
  6 30  1  0
  7 31  1  0
  8 32  1  0
 12 33  1  0
 14 34  1  0
 15 35  1  0
 17 36  1  0
 19 37  1  0
 20 38  1  0
 21 39  1  0
M  END
>  <Energy>  (1204) 
103.88414357695973

>  <compound_id>  (1204) 
19457

>  <target_id>  (1204) 
1

>  <reference_id>  (1204) 
107

>  <inspiration_ids>  (1204) 
[107, 35]

>  <energy_score>  (1204) 
48.55186462694914

>  <distance_score>  (1204) 
2.9036239688756873

>  <path>  (1204) 
/opt/xchem-fragalysis-2/maxwin/BulkDock/SCRATCH/511021/C19457-P107/C19457-P107.minimised.mol

>  <scratch_subdir>  (1204) 
/opt/xchem-fragalysis-2/maxwin/BulkDock/SCRATCH/511021/C19457-P107

>  <fragmenstein_runtime>  (1204) 
7.956729412078857

>  <fragmenstein_outcome>  (1204) 
too moved

>  <fragmenstein_mode>  (1204) 
expansion

>  <fragmenstein_error>  (1204) 


$$$$
C19457-P35
     RDKit          3D

 39 41  0  0  0  0  0  0  0  0999 V2000
   -9.1984  -23.6313   35.1060 O   0  0  0  0  0  0  0  0  0  0  0  0
  -10.0120  -23.6093   34.2962 C   0  0  0  0  0  0  0  0  0  0  0  0
  -11.2976  -22.8734   34.2422 N   0  0  0  0  0  0  0  0  0  0  0  0
  -11.8596  -21.9072   35.1385 C   0  0  0  0  0  0  0  0  0  0  0  0
  -12.4476  -20.8872   34.1534 C   0  0  0  0  0  0  0  0  0  0  0  0
  -11.1312  -20.1890   33.7261 C   0  0  0  0  0  0  0  0  0  0  0  0
  -10.7759  -19.2362   34.7218 O   0  0  0  0  0  0  0  0  0  0  0  0
  -13.1339  -21.7681   33.1161 N   0  0  0  0  0  0  0  0  0  0  0  0
  -12.7771  -22.0463   31.6610 C   0  0  0  0  0  0  0  0  0  0  0  0
  -11.9423  -21.5877   30.9826 O   0  0  0  0  0  0  0  0  0  0  0  0
  -13.5841  -23.1442   31.1025 C   0  0  0  0  0  0  0  0  0  0  0  0
  -14.5062  -24.0492   31.6000 C   0  0  0  0  0  0  0  0  0  0  0  0
  -14.7746  -25.0622   30.6790 N   0  0  0  0  0  0  0  0  0  0  0  0
  -14.0287  -24.7793   29.6377 C   0  0  0  0  0  0  0  0  0  0  0  0
  -13.3217  -23.6144   29.8349 N   0  0  0  0  0  0  0  0  0  0  0  0
  -10.0087  -24.3677   33.0326 C   0  0  0  0  0  0  0  0  0  0  0  0
   -9.6351  -25.6510   32.7287 C   0  0  0  0  0  0  0  0  0  0  0  0
   -9.9939  -25.8485   31.4227 N   0  0  0  0  0  0  0  0  0  0  0  0
   -9.8916  -26.9701   30.6262 C   0  0  0  0  0  0  0  0  0  0  0  0
  -10.2443  -26.9004   29.3359 C   0  0  0  0  0  0  0  0  0  0  0  0
  -10.7124  -25.5709   28.8722 C   0  0  0  0  0  0  0  0  0  0  0  0
  -10.8014  -24.4977   29.6059 N   0  0  0  0  0  0  0  0  0  0  0  0
  -10.5109  -24.6588   30.9306 C   0  0  0  0  0  0  0  0  0  0  0  0
  -10.6024  -23.8007   31.9125 N   0  0  0  0  0  0  0  0  0  0  0  0
  -11.8168  -23.1552   33.3987 H   0  0  0  0  0  0  0  0  0  0  0  0
  -12.6328  -22.3822   35.7323 H   0  0  0  0  0  0  0  0  0  0  0  0
  -11.0700  -21.5473   35.8098 H   0  0  0  0  0  0  0  0  0  0  0  0
  -13.1781  -20.1845   34.5914 H   0  0  0  0  0  0  0  0  0  0  0  0
  -10.2903  -20.8683   33.5821 H   0  0  0  0  0  0  0  0  0  0  0  0
  -11.2521  -19.7181   32.7893 H   0  0  0  0  0  0  0  0  0  0  0  0
   -9.8257  -19.4212   34.9956 H   0  0  0  0  0  0  0  0  0  0  0  0
  -13.9727  -22.3055   33.3713 H   0  0  0  0  0  0  0  0  0  0  0  0
  -14.9832  -24.0676   32.5780 H   0  0  0  0  0  0  0  0  0  0  0  0
  -13.9543  -25.3424   28.7133 H   0  0  0  0  0  0  0  0  0  0  0  0
  -12.5527  -23.2729   29.2629 H   0  0  0  0  0  0  0  0  0  0  0  0
   -9.1765  -26.4240   33.3394 H   0  0  0  0  0  0  0  0  0  0  0  0
   -9.4648  -27.8672   31.0587 H   0  0  0  0  0  0  0  0  0  0  0  0
  -10.1471  -27.7219   28.6209 H   0  0  0  0  0  0  0  0  0  0  0  0
  -10.9641  -25.5000   27.7953 H   0  0  0  0  0  0  0  0  0  0  0  0
  1  2  2  0
  2  3  1  0
  3  4  1  0
  4  5  1  0
  5  6  1  0
  6  7  1  0
  5  8  1  0
  8  9  1  0
  9 10  2  0
  9 11  1  0
 11 12  2  0
 12 13  1  0
 13 14  2  0
 14 15  1  0
  2 16  1  0
 16 17  2  0
 17 18  1  0
 18 19  1  0
 19 20  2  0
 20 21  1  0
 21 22  2  0
 22 23  1  0
 23 24  2  0
 15 11  1  0
 24 16  1  0
 23 18  1  0
  3 25  1  0
  4 26  1  0
  4 27  1  0
  5 28  1  0
  6 29  1  0
  6 30  1  0
  7 31  1  0
  8 32  1  0
 12 33  1  0
 14 34  1  0
 15 35  1  0
 17 36  1  0
 19 37  1  0
 20 38  1  0
 21 39  1  0
M  END
>  <Energy>  (1205) 
77.383669245971035

>  <compound_id>  (1205) 
19457

>  <target_id>  (1205) 
1

>  <reference_id>  (1205) 
35

>  <inspiration_ids>  (1205) 
[107, 35]

>  <energy_score>  (1205) 
22.0513902959583

>  <distance_score>  (1205) 
2.2832671186298095

>  <path>  (1205) 
/opt/xchem-fragalysis-2/maxwin/BulkDock/SCRATCH/511021/C19457-P35/C19457-P35.minimised.mol

>  <scratch_subdir>  (1205) 
/opt/xchem-fragalysis-2/maxwin/BulkDock/SCRATCH/511021/C19457-P35

>  <fragmenstein_runtime>  (1205) 
6.240034580230713

>  <fragmenstein_outcome>  (1205) 
too moved

>  <fragmenstein_mode>  (1205) 
expansion

>  <fragmenstein_error>  (1205) 


$$$$
C19458-P107
     RDKit          3D

 41 43  0  0  0  0  0  0  0  0999 V2000
  -14.3921  -22.6725   33.9513 C   0  0  0  0  0  0  0  0  0  0  0  0
  -12.8619  -22.9689   33.6740 C   0  0  0  0  0  0  0  0  0  0  0  0
  -12.4887  -21.8330   32.7295 C   0  0  0  0  0  0  0  0  0  0  0  0
  -12.4234  -22.4342   31.4368 N   0  0  0  0  0  0  0  0  0  0  0  0
  -11.6907  -22.0870   30.2978 C   0  0  0  0  0  0  0  0  0  0  0  0
  -10.9889  -21.1546   30.0786 O   0  0  0  0  0  0  0  0  0  0  0  0
  -11.8157  -23.1556   29.3395 C   0  0  0  0  0  0  0  0  0  0  0  0
  -11.3268  -24.4260   29.5741 C   0  0  0  0  0  0  0  0  0  0  0  0
  -11.4020  -25.0253   28.3656 N   0  0  0  0  0  0  0  0  0  0  0  0
  -10.8234  -26.2037   27.9466 C   0  0  0  0  0  0  0  0  0  0  0  0
  -10.9808  -26.5556   26.6694 C   0  0  0  0  0  0  0  0  0  0  0  0
  -11.8725  -25.6773   25.8744 C   0  0  0  0  0  0  0  0  0  0  0  0
  -12.4213  -24.5732   26.2528 N   0  0  0  0  0  0  0  0  0  0  0  0
  -12.1184  -24.1855   27.5172 C   0  0  0  0  0  0  0  0  0  0  0  0
  -12.3687  -23.0409   28.1038 N   0  0  0  0  0  0  0  0  0  0  0  0
  -12.2024  -23.0610   35.0569 N   0  0  0  0  0  0  0  0  0  0  0  0
  -11.2237  -23.8295   34.0556 C   0  0  0  0  0  0  0  0  0  0  0  0
  -11.5979  -21.7529   36.1912 C   0  0  0  0  0  0  0  0  0  0  0  0
  -11.5963  -20.5845   35.8246 O   0  0  0  0  0  0  0  0  0  0  0  0
  -11.0840  -21.8689   38.1293 C   0  0  0  0  0  0  0  0  0  0  0  0
  -10.8968  -23.7267   38.4062 C   0  0  0  0  0  0  0  0  0  0  0  0
  -12.2984  -24.4717   39.6676 N   0  0  0  0  0  0  0  0  0  0  0  0
  -13.0406  -23.0413   40.4516 C   0  0  0  0  0  0  0  0  0  0  0  0
  -12.4298  -21.3154   39.7411 N   0  0  0  0  0  0  0  0  0  0  0  0
  -14.8221  -23.4359   34.6055 H   0  0  0  0  0  0  0  0  0  0  0  0
  -14.5559  -21.6860   34.3927 H   0  0  0  0  0  0  0  0  0  0  0  0
  -14.9638  -22.6966   33.0153 H   0  0  0  0  0  0  0  0  0  0  0  0
  -13.1160  -23.9325   33.1885 H   0  0  0  0  0  0  0  0  0  0  0  0
  -11.5418  -21.3391   32.9345 H   0  0  0  0  0  0  0  0  0  0  0  0
  -13.2593  -21.0694   32.6958 H   0  0  0  0  0  0  0  0  0  0  0  0
  -12.9798  -23.2648   31.2323 H   0  0  0  0  0  0  0  0  0  0  0  0
  -10.8319  -24.8669   30.4282 H   0  0  0  0  0  0  0  0  0  0  0  0
  -10.2140  -26.7495   28.6555 H   0  0  0  0  0  0  0  0  0  0  0  0
  -10.5207  -27.3970   26.1833 H   0  0  0  0  0  0  0  0  0  0  0  0
  -12.0841  -26.0557   24.8692 H   0  0  0  0  0  0  0  0  0  0  0  0
  -10.5353  -23.2219   33.4502 H   0  0  0  0  0  0  0  0  0  0  0  0
  -10.7927  -24.6493   34.6666 H   0  0  0  0  0  0  0  0  0  0  0  0
  -11.6081  -24.6029   33.3550 H   0  0  0  0  0  0  0  0  0  0  0  0
   -9.9926  -24.0690   38.9719 H   0  0  0  0  0  0  0  0  0  0  0  0
  -12.5402  -23.0416   41.4368 H   0  0  0  0  0  0  0  0  0  0  0  0
  -12.3373  -20.6014   40.4775 H   0  0  0  0  0  0  0  0  0  0  0  0
  1  2  1  0
  2  3  1  0
  3  4  1  0
  4  5  1  0
  5  6  2  0
  5  7  1  0
  7  8  2  0
  8  9  1  0
  9 10  1  0
 10 11  2  0
 11 12  1  0
 12 13  2  0
 13 14  1  0
 14 15  2  0
  2 16  1  0
 16 17  1  0
 16 18  1  0
 18 19  2  0
 18 20  1  0
 20 21  2  0
 21 22  1  0
 22 23  2  0
 23 24  1  0
 15  7  1  0
 24 20  1  0
 14  9  1  0
  1 25  1  0
  1 26  1  0
  1 27  1  0
  2 28  1  0
  3 29  1  0
  3 30  1  0
  4 31  1  0
  8 32  1  0
 10 33  1  0
 11 34  1  0
 12 35  1  0
 17 36  1  0
 17 37  1  0
 17 38  1  0
 21 39  1  0
 23 40  1  0
 24 41  1  0
M  END
>  <Energy>  (1206) 
976.46105099377598

>  <compound_id>  (1206) 
19458

>  <target_id>  (1206) 
1

>  <reference_id>  (1206) 
107

>  <inspiration_ids>  (1206) 
[107, 35]

>  <energy_score>  (1206) 
919.6157132276198

>  <distance_score>  (1206) 
3.4195336199909874

>  <path>  (1206) 
/opt/xchem-fragalysis-2/maxwin/BulkDock/SCRATCH/511021/C19458-P107/C19458-P107.minimised.mol

>  <scratch_subdir>  (1206) 
/opt/xchem-fragalysis-2/maxwin/BulkDock/SCRATCH/511021/C19458-P107

>  <fragmenstein_runtime>  (1206) 
8.99235725402832

>  <fragmenstein_outcome>  (1206) 
too moved

>  <fragmenstein_mode>  (1206) 
expansion

>  <fragmenstein_error>  (1206) 


$$$$
C19458-P35
     RDKit          3D

 41 43  0  0  0  0  0  0  0  0999 V2000
   -9.4255  -22.9884   34.3706 C   0  0  0  0  0  0  0  0  0  0  0  0
   -9.9350  -21.5856   34.5662 C   0  0  0  0  0  0  0  0  0  0  0  0
  -10.9897  -21.3369   33.3820 C   0  0  0  0  0  0  0  0  0  0  0  0
  -11.5992  -22.4543   32.6301 N   0  0  0  0  0  0  0  0  0  0  0  0
  -11.0053  -23.5957   31.9918 C   0  0  0  0  0  0  0  0  0  0  0  0
   -9.8719  -23.9780   31.9718 O   0  0  0  0  0  0  0  0  0  0  0  0
  -11.9184  -24.3895   31.1779 C   0  0  0  0  0  0  0  0  0  0  0  0
  -11.5669  -25.6410   30.7045 C   0  0  0  0  0  0  0  0  0  0  0  0
  -12.5477  -25.9876   29.8431 N   0  0  0  0  0  0  0  0  0  0  0  0
  -12.6426  -27.1107   29.0375 C   0  0  0  0  0  0  0  0  0  0  0  0
  -13.6923  -27.2346   28.2175 C   0  0  0  0  0  0  0  0  0  0  0  0
  -14.6667  -26.1127   28.2884 C   0  0  0  0  0  0  0  0  0  0  0  0
  -14.5860  -25.0642   29.0460 N   0  0  0  0  0  0  0  0  0  0  0  0
  -13.4917  -24.9673   29.8490 C   0  0  0  0  0  0  0  0  0  0  0  0
  -13.1256  -23.9876   30.6570 N   0  0  0  0  0  0  0  0  0  0  0  0
  -10.4647  -21.7957   35.9576 N   0  0  0  0  0  0  0  0  0  0  0  0
  -10.2084  -20.3078   36.0436 C   0  0  0  0  0  0  0  0  0  0  0  0
  -11.7389  -22.0889   36.4018 C   0  0  0  0  0  0  0  0  0  0  0  0
  -12.7593  -22.1616   35.8082 O   0  0  0  0  0  0  0  0  0  0  0  0
  -11.7840  -22.5116   38.0229 C   0  0  0  0  0  0  0  0  0  0  0  0
  -11.6254  -24.1354   37.9256 C   0  0  0  0  0  0  0  0  0  0  0  0
  -11.9080  -25.0271   39.5576 N   0  0  0  0  0  0  0  0  0  0  0  0
  -12.5483  -23.7830   40.9009 C   0  0  0  0  0  0  0  0  0  0  0  0
  -12.6502  -21.9468   39.9200 N   0  0  0  0  0  0  0  0  0  0  0  0
  -10.2151  -23.7348   34.2858 H   0  0  0  0  0  0  0  0  0  0  0  0
   -8.7866  -22.9427   33.4987 H   0  0  0  0  0  0  0  0  0  0  0  0
   -8.8689  -23.3415   35.2335 H   0  0  0  0  0  0  0  0  0  0  0  0
   -9.0528  -20.9435   34.4077 H   0  0  0  0  0  0  0  0  0  0  0  0
  -10.4493  -20.7715   32.6148 H   0  0  0  0  0  0  0  0  0  0  0  0
  -11.8136  -20.7016   33.7205 H   0  0  0  0  0  0  0  0  0  0  0  0
  -12.6103  -22.4898   32.5000 H   0  0  0  0  0  0  0  0  0  0  0  0
  -10.6841  -26.2410   30.8755 H   0  0  0  0  0  0  0  0  0  0  0  0
  -11.8466  -27.8418   29.1015 H   0  0  0  0  0  0  0  0  0  0  0  0
  -13.8692  -28.0626   27.5482 H   0  0  0  0  0  0  0  0  0  0  0  0
  -15.5390  -26.2145   27.6210 H   0  0  0  0  0  0  0  0  0  0  0  0
  -10.8516  -19.6865   35.4043 H   0  0  0  0  0  0  0  0  0  0  0  0
   -9.1418  -20.0336   36.0227 H   0  0  0  0  0  0  0  0  0  0  0  0
  -10.4743  -19.9935   37.0605 H   0  0  0  0  0  0  0  0  0  0  0  0
  -11.0132  -24.5487   37.1692 H   0  0  0  0  0  0  0  0  0  0  0  0
  -13.4907  -24.0454   41.3477 H   0  0  0  0  0  0  0  0  0  0  0  0
  -13.6690  -21.7908   39.9798 H   0  0  0  0  0  0  0  0  0  0  0  0
  1  2  1  0
  2  3  1  0
  3  4  1  0
  4  5  1  0
  5  6  2  0
  5  7  1  0
  7  8  2  0
  8  9  1  0
  9 10  1  0
 10 11  2  0
 11 12  1  0
 12 13  2  0
 13 14  1  0
 14 15  2  0
  2 16  1  0
 16 17  1  0
 16 18  1  0
 18 19  2  0
 18 20  1  0
 20 21  2  0
 21 22  1  0
 22 23  2  0
 23 24  1  0
 15  7  1  0
 24 20  1  0
 14  9  1  0
  1 25  1  0
  1 26  1  0
  1 27  1  0
  2 28  1  0
  3 29  1  0
  3 30  1  0
  4 31  1  0
  8 32  1  0
 10 33  1  0
 11 34  1  0
 12 35  1  0
 17 36  1  0
 17 37  1  0
 17 38  1  0
 21 39  1  0
 23 40  1  0
 24 41  1  0
M  END
>  <Energy>  (1207) 
807.19302772181334

>  <compound_id>  (1207) 
19458

>  <target_id>  (1207) 
1

>  <reference_id>  (1207) 
35

>  <inspiration_ids>  (1207) 
[107, 35]

>  <energy_score>  (1207) 
750.3476899556417

>  <distance_score>  (1207) 
3.090363761969043

>  <path>  (1207) 
/opt/xchem-fragalysis-2/maxwin/BulkDock/SCRATCH/511021/C19458-P35/C19458-P35.minimised.mol

>  <scratch_subdir>  (1207) 
/opt/xchem-fragalysis-2/maxwin/BulkDock/SCRATCH/511021/C19458-P35

>  <fragmenstein_runtime>  (1207) 
9.638299942016602

>  <fragmenstein_outcome>  (1207) 
too moved

>  <fragmenstein_mode>  (1207) 
expansion

>  <fragmenstein_error>  (1207) 


$$$$
C19459-P107
     RDKit          3D

 38 40  0  0  0  0  0  0  0  0999 V2000
  -11.9010  -28.3827   27.8086 C   0  0  0  0  0  0  0  0  0  0  0  0
  -11.3230  -27.7775   28.9460 N   0  0  0  0  0  0  0  0  0  0  0  0
  -12.6203  -27.1313   28.9780 C   0  0  0  0  0  0  0  0  0  0  0  0
  -13.0346  -25.8538   28.2750 C   0  0  0  0  0  0  0  0  0  0  0  0
  -12.9182  -24.7663   29.1704 N   0  0  0  0  0  0  0  0  0  0  0  0
  -12.6699  -24.7354   30.6136 C   0  0  0  0  0  0  0  0  0  0  0  0
  -12.5890  -25.6125   31.4023 O   0  0  0  0  0  0  0  0  0  0  0  0
  -12.4072  -23.4428   31.0065 C   0  0  0  0  0  0  0  0  0  0  0  0
  -12.5543  -22.5445   32.0123 C   0  0  0  0  0  0  0  0  0  0  0  0
  -12.0945  -21.3463   31.5190 N   0  0  0  0  0  0  0  0  0  0  0  0
  -11.7649  -21.6062   30.2625 C   0  0  0  0  0  0  0  0  0  0  0  0
  -11.9223  -20.9980   29.0658 N   0  0  0  0  0  0  0  0  0  0  0  0
  -11.5440  -21.6577   28.0052 C   0  0  0  0  0  0  0  0  0  0  0  0
  -10.8944  -22.9497   27.9141 C   0  0  0  0  0  0  0  0  0  0  0  0
  -10.8332  -23.4913   29.1075 C   0  0  0  0  0  0  0  0  0  0  0  0
  -11.4435  -22.8975   30.2115 N   0  0  0  0  0  0  0  0  0  0  0  0
  -10.2858  -26.8276   29.0621 C   0  0  0  0  0  0  0  0  0  0  0  0
   -9.6834  -26.2212   28.2145 O   0  0  0  0  0  0  0  0  0  0  0  0
  -10.0346  -26.5286   30.4631 C   0  0  0  0  0  0  0  0  0  0  0  0
  -10.5545  -27.0145   31.6351 C   0  0  0  0  0  0  0  0  0  0  0  0
  -10.4045  -26.0905   32.6671 N   0  0  0  0  0  0  0  0  0  0  0  0
   -9.5667  -25.2069   32.2005 C   0  0  0  0  0  0  0  0  0  0  0  0
   -9.2344  -25.5163   30.9245 N   0  0  0  0  0  0  0  0  0  0  0  0
  -11.3702  -29.2217   27.4145 H   0  0  0  0  0  0  0  0  0  0  0  0
  -11.9140  -27.6460   26.9972 H   0  0  0  0  0  0  0  0  0  0  0  0
  -12.7357  -29.0562   28.0941 H   0  0  0  0  0  0  0  0  0  0  0  0
  -12.6320  -27.0478   30.0423 H   0  0  0  0  0  0  0  0  0  0  0  0
  -13.4922  -27.7839   28.7971 H   0  0  0  0  0  0  0  0  0  0  0  0
  -12.3643  -25.6271   27.4387 H   0  0  0  0  0  0  0  0  0  0  0  0
  -14.0319  -25.8675   27.8271 H   0  0  0  0  0  0  0  0  0  0  0  0
  -13.0063  -23.8209   28.8276 H   0  0  0  0  0  0  0  0  0  0  0  0
  -13.0285  -22.6518   32.9793 H   0  0  0  0  0  0  0  0  0  0  0  0
  -11.6944  -21.2473   27.0086 H   0  0  0  0  0  0  0  0  0  0  0  0
  -10.6246  -23.4573   27.0044 H   0  0  0  0  0  0  0  0  0  0  0  0
  -10.4954  -24.4854   29.2048 H   0  0  0  0  0  0  0  0  0  0  0  0
  -11.1532  -27.8983   31.7671 H   0  0  0  0  0  0  0  0  0  0  0  0
   -9.1839  -24.3495   32.7310 H   0  0  0  0  0  0  0  0  0  0  0  0
   -8.6338  -24.9906   30.3237 H   0  0  0  0  0  0  0  0  0  0  0  0
  1  2  1  0
  2  3  1  0
  3  4  1  0
  4  5  1  0
  5  6  1  0
  6  7  2  0
  6  8  1  0
  8  9  2  0
  9 10  1  0
 10 11  2  0
 11 12  1  0
 12 13  2  0
 13 14  1  0
 14 15  2  0
 15 16  1  0
  2 17  1  0
 17 18  2  0
 17 19  1  0
 19 20  2  0
 20 21  1  0
 21 22  2  0
 22 23  1  0
 16  8  1  0
 23 19  1  0
 16 11  1  0
  1 24  1  0
  1 25  1  0
  1 26  1  0
  3 27  1  0
  3 28  1  0
  4 29  1  0
  4 30  1  0
  5 31  1  0
  9 32  1  0
 13 33  1  0
 14 34  1  0
 15 35  1  0
 20 36  1  0
 22 37  1  0
 23 38  1  0
M  END
>  <Energy>  (1208) 
178.14835995032473

>  <compound_id>  (1208) 
19459

>  <target_id>  (1208) 
1

>  <reference_id>  (1208) 
107

>  <inspiration_ids>  (1208) 
[107, 35]

>  <energy_score>  (1208) 
184.49111789347444

>  <distance_score>  (1208) 
1.8852593855090163

>  <path>  (1208) 
/opt/xchem-fragalysis-2/maxwin/BulkDock/SCRATCH/511021/C19459-P107/C19459-P107.minimised.mol

>  <scratch_subdir>  (1208) 
/opt/xchem-fragalysis-2/maxwin/BulkDock/SCRATCH/511021/C19459-P107

>  <fragmenstein_runtime>  (1208) 
4.417918682098389

>  <fragmenstein_outcome>  (1208) 
too moved

>  <fragmenstein_mode>  (1208) 
expansion

>  <fragmenstein_error>  (1208) 


$$$$
C19459-P35
     RDKit          3D

 38 40  0  0  0  0  0  0  0  0999 V2000
  -15.4062  -29.8528   28.4098 C   0  0  0  0  0  0  0  0  0  0  0  0
  -14.2269  -29.0115   28.7564 N   0  0  0  0  0  0  0  0  0  0  0  0
  -15.0402  -27.9479   27.9905 C   0  0  0  0  0  0  0  0  0  0  0  0
  -16.0028  -27.0766   28.8364 C   0  0  0  0  0  0  0  0  0  0  0  0
  -15.3246  -25.9860   29.4887 N   0  0  0  0  0  0  0  0  0  0  0  0
  -14.7611  -25.8816   30.7904 C   0  0  0  0  0  0  0  0  0  0  0  0
  -14.7741  -26.6453   31.7070 O   0  0  0  0  0  0  0  0  0  0  0  0
  -14.0553  -24.6119   30.9212 C   0  0  0  0  0  0  0  0  0  0  0  0
  -14.1355  -23.6811   31.9432 C   0  0  0  0  0  0  0  0  0  0  0  0
  -13.3585  -22.5774   31.6994 N   0  0  0  0  0  0  0  0  0  0  0  0
  -12.7484  -22.8171   30.5628 C   0  0  0  0  0  0  0  0  0  0  0  0
  -11.9093  -21.9967   29.8632 N   0  0  0  0  0  0  0  0  0  0  0  0
  -11.4387  -22.4755   28.7547 C   0  0  0  0  0  0  0  0  0  0  0  0
  -11.7212  -23.8064   28.1698 C   0  0  0  0  0  0  0  0  0  0  0  0
  -12.5830  -24.5496   28.8710 C   0  0  0  0  0  0  0  0  0  0  0  0
  -13.1152  -24.0666   30.0632 N   0  0  0  0  0  0  0  0  0  0  0  0
  -12.8909  -29.0446   28.2751 C   0  0  0  0  0  0  0  0  0  0  0  0
  -12.3941  -29.6993   27.4019 O   0  0  0  0  0  0  0  0  0  0  0  0
  -12.0342  -28.1888   29.0840 C   0  0  0  0  0  0  0  0  0  0  0  0
  -10.7760  -27.6873   28.8001 C   0  0  0  0  0  0  0  0  0  0  0  0
  -10.2932  -26.9200   29.8286 N   0  0  0  0  0  0  0  0  0  0  0  0
  -11.1876  -27.0245   30.7824 C   0  0  0  0  0  0  0  0  0  0  0  0
  -12.2552  -27.7776   30.3809 N   0  0  0  0  0  0  0  0  0  0  0  0
  -15.1920  -30.7970   28.9325 H   0  0  0  0  0  0  0  0  0  0  0  0
  -15.4233  -30.1714   27.3563 H   0  0  0  0  0  0  0  0  0  0  0  0
  -16.3799  -29.5562   28.8161 H   0  0  0  0  0  0  0  0  0  0  0  0
  -15.5002  -28.2603   27.0344 H   0  0  0  0  0  0  0  0  0  0  0  0
  -14.2827  -27.2440   27.6082 H   0  0  0  0  0  0  0  0  0  0  0  0
  -16.7504  -26.6248   28.1772 H   0  0  0  0  0  0  0  0  0  0  0  0
  -16.5196  -27.6504   29.6100 H   0  0  0  0  0  0  0  0  0  0  0  0
  -15.1882  -25.1112   29.0006 H   0  0  0  0  0  0  0  0  0  0  0  0
  -14.7454  -23.7374   32.8364 H   0  0  0  0  0  0  0  0  0  0  0  0
  -10.7507  -21.8541   28.1676 H   0  0  0  0  0  0  0  0  0  0  0  0
  -11.2459  -24.1077   27.2486 H   0  0  0  0  0  0  0  0  0  0  0  0
  -12.8682  -25.5365   28.5454 H   0  0  0  0  0  0  0  0  0  0  0  0
  -10.2002  -27.8299   27.8940 H   0  0  0  0  0  0  0  0  0  0  0  0
  -11.1292  -26.5689   31.7641 H   0  0  0  0  0  0  0  0  0  0  0  0
  -13.0774  -27.9822   30.9353 H   0  0  0  0  0  0  0  0  0  0  0  0
  1  2  1  0
  2  3  1  0
  3  4  1  0
  4  5  1  0
  5  6  1  0
  6  7  2  0
  6  8  1  0
  8  9  2  0
  9 10  1  0
 10 11  2  0
 11 12  1  0
 12 13  2  0
 13 14  1  0
 14 15  2  0
 15 16  1  0
  2 17  1  0
 17 18  2  0
 17 19  1  0
 19 20  2  0
 20 21  1  0
 21 22  2  0
 22 23  1  0
 16  8  1  0
 23 19  1  0
 16 11  1  0
  1 24  1  0
  1 25  1  0
  1 26  1  0
  3 27  1  0
  3 28  1  0
  4 29  1  0
  4 30  1  0
  5 31  1  0
  9 32  1  0
 13 33  1  0
 14 34  1  0
 15 35  1  0
 20 36  1  0
 22 37  1  0
 23 38  1  0
M  END
>  <Energy>  (1209) 
39.693259945878907

>  <compound_id>  (1209) 
19459

>  <target_id>  (1209) 
1

>  <reference_id>  (1209) 
35

>  <inspiration_ids>  (1209) 
[107, 35]

>  <energy_score>  (1209) 
46.03601788902233

>  <distance_score>  (1209) 
2.4819442182145512

>  <path>  (1209) 
/opt/xchem-fragalysis-2/maxwin/BulkDock/SCRATCH/511021/C19459-P35/C19459-P35.minimised.mol

>  <scratch_subdir>  (1209) 
/opt/xchem-fragalysis-2/maxwin/BulkDock/SCRATCH/511021/C19459-P35

>  <fragmenstein_runtime>  (1209) 
6.550181150436401

>  <fragmenstein_outcome>  (1209) 
too moved

>  <fragmenstein_mode>  (1209) 
expansion

>  <fragmenstein_error>  (1209) 


$$$$
C62298-P107
     RDKit          3D

 38 40  0  0  0  0  0  0  0  0999 V2000
  -14.5895  -18.3005   34.2461 O   0  0  0  0  0  0  0  0  0  0  0  0
  -13.7192  -18.7254   34.9020 C   0  0  0  0  0  0  0  0  0  0  0  0
  -12.8192  -19.9792   34.6943 N   0  0  0  0  0  0  0  0  0  0  0  0
  -12.7456  -20.9079   33.5901 C   0  0  0  0  0  0  0  0  0  0  0  0
  -12.5296  -22.4009   33.7557 C   0  0  0  0  0  0  0  0  0  0  0  0
  -12.1474  -23.0159   32.4571 C   0  0  0  0  0  0  0  0  0  0  0  0
  -11.6409  -24.2712   32.2176 C   0  0  0  0  0  0  0  0  0  0  0  0
  -11.5417  -24.3617   30.8584 N   0  0  0  0  0  0  0  0  0  0  0  0
  -11.0849  -25.4061   30.0703 C   0  0  0  0  0  0  0  0  0  0  0  0
  -11.0505  -25.2493   28.7401 C   0  0  0  0  0  0  0  0  0  0  0  0
  -11.5282  -23.9242   28.2457 C   0  0  0  0  0  0  0  0  0  0  0  0
  -11.9515  -22.9351   28.9686 N   0  0  0  0  0  0  0  0  0  0  0  0
  -11.9621  -23.1490   30.3170 C   0  0  0  0  0  0  0  0  0  0  0  0
  -12.2950  -22.3189   31.2773 N   0  0  0  0  0  0  0  0  0  0  0  0
  -13.2410  -17.9821   36.1758 C   0  0  0  0  0  0  0  0  0  0  0  0
  -11.9865  -18.4940   36.6200 O   0  0  0  0  0  0  0  0  0  0  0  0
  -14.3507  -18.0670   37.2303 C   0  0  0  0  0  0  0  0  0  0  0  0
  -14.0105  -17.5066   38.5694 C   0  0  0  0  0  0  0  0  0  0  0  0
  -12.9447  -17.8147   39.3829 C   0  0  0  0  0  0  0  0  0  0  0  0
  -13.1501  -17.1370   40.5477 N   0  0  0  0  0  0  0  0  0  0  0  0
  -14.3109  -16.4337   40.4045 C   0  0  0  0  0  0  0  0  0  0  0  0
  -14.8427  -16.6136   39.2140 N   0  0  0  0  0  0  0  0  0  0  0  0
  -12.1033  -20.0081   35.4181 H   0  0  0  0  0  0  0  0  0  0  0  0
  -13.6947  -20.8059   33.0539 H   0  0  0  0  0  0  0  0  0  0  0  0
  -11.9217  -20.5151   32.9868 H   0  0  0  0  0  0  0  0  0  0  0  0
  -13.4696  -22.8694   34.0733 H   0  0  0  0  0  0  0  0  0  0  0  0
  -11.7891  -22.6355   34.5046 H   0  0  0  0  0  0  0  0  0  0  0  0
  -11.3902  -25.0875   32.8772 H   0  0  0  0  0  0  0  0  0  0  0  0
  -10.7642  -26.3077   30.5774 H   0  0  0  0  0  0  0  0  0  0  0  0
  -10.7033  -25.9954   28.0415 H   0  0  0  0  0  0  0  0  0  0  0  0
  -11.5034  -23.8020   27.1497 H   0  0  0  0  0  0  0  0  0  0  0  0
  -13.0784  -16.9315   35.9038 H   0  0  0  0  0  0  0  0  0  0  0  0
  -11.3189  -18.0695   36.0469 H   0  0  0  0  0  0  0  0  0  0  0  0
  -15.2453  -17.5577   36.8482 H   0  0  0  0  0  0  0  0  0  0  0  0
  -14.6512  -19.1071   37.3833 H   0  0  0  0  0  0  0  0  0  0  0  0
  -12.0836  -18.4504   39.2468 H   0  0  0  0  0  0  0  0  0  0  0  0
  -12.5436  -17.1710   41.3571 H   0  0  0  0  0  0  0  0  0  0  0  0
  -14.7113  -15.8098   41.1914 H   0  0  0  0  0  0  0  0  0  0  0  0
  1  2  2  0
  2  3  1  0
  3  4  1  0
  4  5  1  0
  5  6  1  0
  6  7  2  0
  7  8  1  0
  8  9  1  0
  9 10  2  0
 10 11  1  0
 11 12  2  0
 12 13  1  0
 13 14  2  0
  2 15  1  0
 15 16  1  0
 15 17  1  0
 17 18  1  0
 18 19  2  0
 19 20  1  0
 20 21  1  0
 21 22  2  0
 14  6  1  0
 22 18  1  0
 13  8  1  0
  3 23  1  0
  4 24  1  0
  4 25  1  0
  5 26  1  0
  5 27  1  0
  7 28  1  0
  9 29  1  0
 10 30  1  0
 11 31  1  0
 15 32  1  0
 16 33  1  0
 17 34  1  0
 17 35  1  0
 19 36  1  0
 20 37  1  0
 21 38  1  0
M  END
>  <Energy>  (1210) 
75.127744114438357

>  <compound_id>  (1210) 
62298

>  <target_id>  (1210) 
1

>  <reference_id>  (1210) 
107

>  <inspiration_ids>  (1210) 
[107, 35]

>  <energy_score>  (1210) 
-9.150018293763111

>  <distance_score>  (1210) 
1.5553166916226275

>  <path>  (1210) 
/opt/xchem-fragalysis-2/maxwin/BulkDock/SCRATCH/511021/C62298-P107/C62298-P107.minimised.mol

>  <scratch_subdir>  (1210) 
/opt/xchem-fragalysis-2/maxwin/BulkDock/SCRATCH/511021/C62298-P107

>  <fragmenstein_runtime>  (1210) 
4.637440919876099

>  <fragmenstein_outcome>  (1210) 
too moved

>  <fragmenstein_mode>  (1210) 
expansion

>  <fragmenstein_error>  (1210) 


$$$$
C62298-P35
     RDKit          3D

 38 40  0  0  0  0  0  0  0  0999 V2000
  -17.9400  -21.5161   33.9664 O   0  0  0  0  0  0  0  0  0  0  0  0
  -17.3489  -22.2435   33.2142 C   0  0  0  0  0  0  0  0  0  0  0  0
  -15.9809  -22.2319   32.7802 N   0  0  0  0  0  0  0  0  0  0  0  0
  -14.9208  -21.2963   33.0326 C   0  0  0  0  0  0  0  0  0  0  0  0
  -13.4885  -21.8037   33.2443 C   0  0  0  0  0  0  0  0  0  0  0  0
  -12.8564  -22.5826   32.1457 C   0  0  0  0  0  0  0  0  0  0  0  0
  -11.8260  -23.4954   32.2463 C   0  0  0  0  0  0  0  0  0  0  0  0
  -11.6454  -23.9891   30.9869 N   0  0  0  0  0  0  0  0  0  0  0  0
  -10.8086  -24.9984   30.5337 C   0  0  0  0  0  0  0  0  0  0  0  0
  -10.7822  -25.2829   29.2248 C   0  0  0  0  0  0  0  0  0  0  0  0
  -11.6709  -24.4323   28.3804 C   0  0  0  0  0  0  0  0  0  0  0  0
  -12.4661  -23.4943   28.7934 N   0  0  0  0  0  0  0  0  0  0  0  0
  -12.4791  -23.2699   30.1392 C   0  0  0  0  0  0  0  0  0  0  0  0
  -13.2122  -22.4222   30.8322 N   0  0  0  0  0  0  0  0  0  0  0  0
  -18.1597  -23.3960   32.5567 C   0  0  0  0  0  0  0  0  0  0  0  0
  -19.5714  -23.2085   32.7153 O   0  0  0  0  0  0  0  0  0  0  0  0
  -17.7543  -24.7866   33.0366 C   0  0  0  0  0  0  0  0  0  0  0  0
  -18.0197  -25.1087   34.4723 C   0  0  0  0  0  0  0  0  0  0  0  0
  -17.9635  -24.3191   35.6009 C   0  0  0  0  0  0  0  0  0  0  0  0
  -18.1425  -25.1666   36.6587 N   0  0  0  0  0  0  0  0  0  0  0  0
  -18.3511  -26.4132   36.1457 C   0  0  0  0  0  0  0  0  0  0  0  0
  -18.2803  -26.4148   34.8338 N   0  0  0  0  0  0  0  0  0  0  0  0
  -15.8517  -22.9511   32.0717 H   0  0  0  0  0  0  0  0  0  0  0  0
  -14.9828  -20.6284   32.1789 H   0  0  0  0  0  0  0  0  0  0  0  0
  -15.2155  -20.6990   33.9035 H   0  0  0  0  0  0  0  0  0  0  0  0
  -13.4417  -22.3990   34.1495 H   0  0  0  0  0  0  0  0  0  0  0  0
  -12.8444  -20.9389   33.4448 H   0  0  0  0  0  0  0  0  0  0  0  0
  -11.2562  -23.8538   33.0901 H   0  0  0  0  0  0  0  0  0  0  0  0
  -10.2043  -25.5129   31.2696 H   0  0  0  0  0  0  0  0  0  0  0  0
  -10.1688  -26.0474   28.7711 H   0  0  0  0  0  0  0  0  0  0  0  0
  -11.6256  -24.6456   27.2992 H   0  0  0  0  0  0  0  0  0  0  0  0
  -17.9903  -23.3396   31.4793 H   0  0  0  0  0  0  0  0  0  0  0  0
  -19.6592  -22.6987   33.5467 H   0  0  0  0  0  0  0  0  0  0  0  0
  -18.3019  -25.5233   32.4336 H   0  0  0  0  0  0  0  0  0  0  0  0
  -16.6883  -24.9550   32.8436 H   0  0  0  0  0  0  0  0  0  0  0  0
  -17.7518  -23.2716   35.7604 H   0  0  0  0  0  0  0  0  0  0  0  0
  -18.0564  -24.9218   37.6393 H   0  0  0  0  0  0  0  0  0  0  0  0
  -18.5119  -27.2787   36.7730 H   0  0  0  0  0  0  0  0  0  0  0  0
  1  2  2  0
  2  3  1  0
  3  4  1  0
  4  5  1  0
  5  6  1  0
  6  7  2  0
  7  8  1  0
  8  9  1  0
  9 10  2  0
 10 11  1  0
 11 12  2  0
 12 13  1  0
 13 14  2  0
  2 15  1  0
 15 16  1  0
 15 17  1  0
 17 18  1  0
 18 19  2  0
 19 20  1  0
 20 21  1  0
 21 22  2  0
 14  6  1  0
 22 18  1  0
 13  8  1  0
  3 23  1  0
  4 24  1  0
  4 25  1  0
  5 26  1  0
  5 27  1  0
  7 28  1  0
  9 29  1  0
 10 30  1  0
 11 31  1  0
 15 32  1  0
 16 33  1  0
 17 34  1  0
 17 35  1  0
 19 36  1  0
 20 37  1  0
 21 38  1  0
M  END
>  <Energy>  (1211) 
59.40142906374016

>  <compound_id>  (1211) 
62298

>  <target_id>  (1211) 
1

>  <reference_id>  (1211) 
35

>  <inspiration_ids>  (1211) 
[107, 35]

>  <energy_score>  (1211) 
-29.609185806691926

>  <distance_score>  (1211) 
2.6748705568006184

>  <path>  (1211) 
/opt/xchem-fragalysis-2/maxwin/BulkDock/SCRATCH/511021/C62298-P35/C62298-P35.minimised.mol

>  <scratch_subdir>  (1211) 
/opt/xchem-fragalysis-2/maxwin/BulkDock/SCRATCH/511021/C62298-P35

>  <fragmenstein_runtime>  (1211) 
6.015656471252441

>  <fragmenstein_outcome>  (1211) 
too moved

>  <fragmenstein_mode>  (1211) 
expansion

>  <fragmenstein_error>  (1211) 


$$$$
C62299-P107
     RDKit          3D

 34 36  0  0  0  0  0  0  0  0999 V2000
  -14.0245  -26.3605   26.7400 C   0  0  0  0  0  0  0  0  0  0  0  0
  -12.5853  -26.4452   27.2407 C   0  0  0  0  0  0  0  0  0  0  0  0
  -12.2891  -27.5591   28.2692 C   0  0  0  0  0  0  0  0  0  0  0  0
  -11.4199  -27.2350   29.4678 C   0  0  0  0  0  0  0  0  0  0  0  0
  -11.7313  -26.8038   30.7309 C   0  0  0  0  0  0  0  0  0  0  0  0
  -10.6344  -27.0106   31.4984 N   0  0  0  0  0  0  0  0  0  0  0  0
   -9.6587  -27.3662   30.6476 C   0  0  0  0  0  0  0  0  0  0  0  0
  -10.0615  -27.3070   29.4043 N   0  0  0  0  0  0  0  0  0  0  0  0
  -12.2493  -25.2432   27.8916 N   0  0  0  0  0  0  0  0  0  0  0  0
  -11.0670  -24.3035   27.6873 C   0  0  0  0  0  0  0  0  0  0  0  0
  -10.2207  -24.3239   26.9013 O   0  0  0  0  0  0  0  0  0  0  0  0
  -11.2014  -23.4019   28.8055 C   0  0  0  0  0  0  0  0  0  0  0  0
  -11.6828  -22.0451   28.7534 C   0  0  0  0  0  0  0  0  0  0  0  0
  -12.0682  -21.3772   29.7892 N   0  0  0  0  0  0  0  0  0  0  0  0
  -12.0454  -22.0097   31.0058 C   0  0  0  0  0  0  0  0  0  0  0  0
  -12.4955  -21.6000   32.1713 N   0  0  0  0  0  0  0  0  0  0  0  0
  -12.2197  -22.6034   33.0561 C   0  0  0  0  0  0  0  0  0  0  0  0
  -11.5547  -23.6323   32.4414 C   0  0  0  0  0  0  0  0  0  0  0  0
  -11.5059  -23.2690   31.1303 N   0  0  0  0  0  0  0  0  0  0  0  0
  -11.0663  -23.9408   30.0246 C   0  0  0  0  0  0  0  0  0  0  0  0
  -14.0473  -25.8531   25.7683 H   0  0  0  0  0  0  0  0  0  0  0  0
  -14.6615  -25.7668   27.4011 H   0  0  0  0  0  0  0  0  0  0  0  0
  -14.4963  -27.3371   26.6218 H   0  0  0  0  0  0  0  0  0  0  0  0
  -11.9015  -26.5542   26.3913 H   0  0  0  0  0  0  0  0  0  0  0  0
  -13.2172  -28.0249   28.6082 H   0  0  0  0  0  0  0  0  0  0  0  0
  -11.7739  -28.3623   27.7468 H   0  0  0  0  0  0  0  0  0  0  0  0
  -12.5942  -26.3467   31.1589 H   0  0  0  0  0  0  0  0  0  0  0  0
  -10.5060  -26.9303   32.4999 H   0  0  0  0  0  0  0  0  0  0  0  0
   -8.6974  -27.6947   31.0032 H   0  0  0  0  0  0  0  0  0  0  0  0
  -12.8459  -24.8817   28.6293 H   0  0  0  0  0  0  0  0  0  0  0  0
  -11.7047  -21.5927   27.7539 H   0  0  0  0  0  0  0  0  0  0  0  0
  -12.4968  -22.5340   34.0950 H   0  0  0  0  0  0  0  0  0  0  0  0
  -11.1735  -24.5664   32.8185 H   0  0  0  0  0  0  0  0  0  0  0  0
  -10.5876  -24.8833   30.1671 H   0  0  0  0  0  0  0  0  0  0  0  0
  1  2  1  0
  2  3  1  0
  3  4  1  0
  4  5  2  0
  5  6  1  0
  6  7  1  0
  7  8  2  0
  2  9  1  0
  9 10  1  0
 10 11  2  0
 10 12  1  0
 12 13  1  0
 13 14  2  0
 14 15  1  0
 15 16  2  0
 16 17  1  0
 17 18  2  0
 18 19  1  0
 19 20  1  0
  8  4  1  0
 20 12  2  0
 19 15  1  0
  1 21  1  0
  1 22  1  0
  1 23  1  0
  2 24  1  0
  3 25  1  0
  3 26  1  0
  5 27  1  0
  6 28  1  0
  7 29  1  0
  9 30  1  0
 13 31  1  0
 17 32  1  0
 18 33  1  0
 20 34  1  0
M  END
>  <Energy>  (1212) 
64.507571336946285

>  <compound_id>  (1212) 
62299

>  <target_id>  (1212) 
1

>  <reference_id>  (1212) 
107

>  <inspiration_ids>  (1212) 
[107, 35]

>  <energy_score>  (1212) 
18.075647820423313

>  <distance_score>  (1212) 
1.888413367934514

>  <path>  (1212) 
/opt/xchem-fragalysis-2/maxwin/BulkDock/SCRATCH/511021/C62299-P107/C62299-P107.minimised.mol

>  <scratch_subdir>  (1212) 
/opt/xchem-fragalysis-2/maxwin/BulkDock/SCRATCH/511021/C62299-P107

>  <fragmenstein_runtime>  (1212) 
3.043668508529663

>  <fragmenstein_outcome>  (1212) 
too moved

>  <fragmenstein_mode>  (1212) 
expansion

>  <fragmenstein_error>  (1212) 


$$$$
C62299-P35
     RDKit          3D

 34 36  0  0  0  0  0  0  0  0999 V2000
  -14.3458  -29.1654   29.2395 C   0  0  0  0  0  0  0  0  0  0  0  0
  -12.9233  -28.6487   29.3716 C   0  0  0  0  0  0  0  0  0  0  0  0
  -12.2223  -29.1868   30.6501 C   0  0  0  0  0  0  0  0  0  0  0  0
  -11.0552  -28.3417   31.0885 C   0  0  0  0  0  0  0  0  0  0  0  0
   -9.9011  -28.0037   30.4232 C   0  0  0  0  0  0  0  0  0  0  0  0
   -9.2547  -27.1125   31.2343 N   0  0  0  0  0  0  0  0  0  0  0  0
  -10.0245  -26.9166   32.3369 C   0  0  0  0  0  0  0  0  0  0  0  0
  -11.1089  -27.6591   32.2861 N   0  0  0  0  0  0  0  0  0  0  0  0
  -12.8848  -27.2110   29.4478 N   0  0  0  0  0  0  0  0  0  0  0  0
  -12.1716  -26.1789   28.5502 C   0  0  0  0  0  0  0  0  0  0  0  0
  -11.5677  -26.3247   27.5641 O   0  0  0  0  0  0  0  0  0  0  0  0
  -12.2634  -24.8459   29.2015 C   0  0  0  0  0  0  0  0  0  0  0  0
  -12.1442  -23.5524   28.4743 C   0  0  0  0  0  0  0  0  0  0  0  0
  -11.9743  -22.3798   29.0128 N   0  0  0  0  0  0  0  0  0  0  0  0
  -11.8320  -22.3579   30.3706 C   0  0  0  0  0  0  0  0  0  0  0  0
  -11.5627  -21.3479   31.1633 N   0  0  0  0  0  0  0  0  0  0  0  0
  -11.4185  -21.8566   32.4273 C   0  0  0  0  0  0  0  0  0  0  0  0
  -11.5551  -23.2175   32.4052 C   0  0  0  0  0  0  0  0  0  0  0  0
  -11.8606  -23.5239   31.1102 N   0  0  0  0  0  0  0  0  0  0  0  0
  -12.0726  -24.7470   30.5294 C   0  0  0  0  0  0  0  0  0  0  0  0
  -14.8159  -28.7750   28.3305 H   0  0  0  0  0  0  0  0  0  0  0  0
  -14.9647  -28.8537   30.0883 H   0  0  0  0  0  0  0  0  0  0  0  0
  -14.3593  -30.2588   29.1888 H   0  0  0  0  0  0  0  0  0  0  0  0
  -12.3413  -28.9398   28.4897 H   0  0  0  0  0  0  0  0  0  0  0  0
  -12.9466  -29.1836   31.4750 H   0  0  0  0  0  0  0  0  0  0  0  0
  -11.9229  -30.2292   30.5216 H   0  0  0  0  0  0  0  0  0  0  0  0
   -9.5116  -28.2930   29.4589 H   0  0  0  0  0  0  0  0  0  0  0  0
   -8.3348  -26.7124   31.0968 H   0  0  0  0  0  0  0  0  0  0  0  0
   -9.7318  -26.2638   33.1494 H   0  0  0  0  0  0  0  0  0  0  0  0
  -13.2440  -26.7492   30.2747 H   0  0  0  0  0  0  0  0  0  0  0  0
  -12.2188  -23.6199   27.3754 H   0  0  0  0  0  0  0  0  0  0  0  0
  -11.1866  -21.2176   33.2702 H   0  0  0  0  0  0  0  0  0  0  0  0
  -11.4514  -23.9708   33.1679 H   0  0  0  0  0  0  0  0  0  0  0  0
  -12.0027  -25.5753   31.2147 H   0  0  0  0  0  0  0  0  0  0  0  0
  1  2  1  0
  2  3  1  0
  3  4  1  0
  4  5  2  0
  5  6  1  0
  6  7  1  0
  7  8  2  0
  2  9  1  0
  9 10  1  0
 10 11  2  0
 10 12  1  0
 12 13  1  0
 13 14  2  0
 14 15  1  0
 15 16  2  0
 16 17  1  0
 17 18  2  0
 18 19  1  0
 19 20  1  0
  8  4  1  0
 20 12  2  0
 19 15  1  0
  1 21  1  0
  1 22  1  0
  1 23  1  0
  2 24  1  0
  3 25  1  0
  3 26  1  0
  5 27  1  0
  6 28  1  0
  7 29  1  0
  9 30  1  0
 13 31  1  0
 17 32  1  0
 18 33  1  0
 20 34  1  0
M  END
>  <Energy>  (1213) 
29.905678689333307

>  <compound_id>  (1213) 
62299

>  <target_id>  (1213) 
1

>  <reference_id>  (1213) 
35

>  <inspiration_ids>  (1213) 
[107, 35]

>  <energy_score>  (1213) 
-16.526244827189544

>  <distance_score>  (1213) 
1.3803819991211088

>  <path>  (1213) 
/opt/xchem-fragalysis-2/maxwin/BulkDock/SCRATCH/511021/C62299-P35/C62299-P35.minimised.mol

>  <scratch_subdir>  (1213) 
/opt/xchem-fragalysis-2/maxwin/BulkDock/SCRATCH/511021/C62299-P35

>  <fragmenstein_runtime>  (1213) 
3.2034761905670166

>  <fragmenstein_outcome>  (1213) 
too moved

>  <fragmenstein_mode>  (1213) 
expansion

>  <fragmenstein_error>  (1213) 


$$$$
C62300-P107
     RDKit          3D

 34 36  0  0  0  0  0  0  0  0999 V2000
  -11.8883  -20.8829   33.3886 C   0  0  0  0  0  0  0  0  0  0  0  0
  -12.2700  -21.8992   32.4708 N   0  0  0  0  0  0  0  0  0  0  0  0
  -12.0477  -21.9266   31.0374 C   0  0  0  0  0  0  0  0  0  0  0  0
  -12.9802  -22.8370   30.2860 C   0  0  0  0  0  0  0  0  0  0  0  0
  -12.5736  -23.2511   28.9073 C   0  0  0  0  0  0  0  0  0  0  0  0
  -11.7208  -22.6728   27.9971 C   0  0  0  0  0  0  0  0  0  0  0  0
  -11.8572  -23.4141   26.8534 N   0  0  0  0  0  0  0  0  0  0  0  0
  -12.6889  -24.4542   27.1175 C   0  0  0  0  0  0  0  0  0  0  0  0
  -13.1452  -24.3781   28.3408 N   0  0  0  0  0  0  0  0  0  0  0  0
  -12.9241  -22.9873   32.9760 C   0  0  0  0  0  0  0  0  0  0  0  0
  -14.1441  -23.0282   33.0670 O   0  0  0  0  0  0  0  0  0  0  0  0
  -11.9911  -24.0887   33.2755 C   0  0  0  0  0  0  0  0  0  0  0  0
  -10.6265  -24.1184   32.9563 C   0  0  0  0  0  0  0  0  0  0  0  0
  -10.5387  -25.0168   31.9054 N   0  0  0  0  0  0  0  0  0  0  0  0
   -9.5517  -25.2132   30.9711 C   0  0  0  0  0  0  0  0  0  0  0  0
   -9.8494  -25.7228   29.7676 C   0  0  0  0  0  0  0  0  0  0  0  0
  -11.2100  -26.2680   29.6664 C   0  0  0  0  0  0  0  0  0  0  0  0
  -12.0778  -26.2682   30.6183 N   0  0  0  0  0  0  0  0  0  0  0  0
  -11.7665  -25.5705   31.7425 C   0  0  0  0  0  0  0  0  0  0  0  0
  -12.4898  -25.2524   32.7863 N   0  0  0  0  0  0  0  0  0  0  0  0
  -11.0747  -20.2801   32.9965 H   0  0  0  0  0  0  0  0  0  0  0  0
  -11.7499  -21.3271   34.3675 H   0  0  0  0  0  0  0  0  0  0  0  0
  -12.7543  -20.2519   33.5880 H   0  0  0  0  0  0  0  0  0  0  0  0
  -11.9131  -20.9696   30.5746 H   0  0  0  0  0  0  0  0  0  0  0  0
  -11.0423  -22.3400   30.9451 H   0  0  0  0  0  0  0  0  0  0  0  0
  -13.9760  -22.3957   30.2986 H   0  0  0  0  0  0  0  0  0  0  0  0
  -13.1470  -23.7822   30.7875 H   0  0  0  0  0  0  0  0  0  0  0  0
  -11.1185  -21.7796   28.0305 H   0  0  0  0  0  0  0  0  0  0  0  0
  -11.5034  -23.1892   25.9380 H   0  0  0  0  0  0  0  0  0  0  0  0
  -12.9627  -25.1954   26.3795 H   0  0  0  0  0  0  0  0  0  0  0  0
   -9.8619  -23.3652   33.0107 H   0  0  0  0  0  0  0  0  0  0  0  0
   -8.5836  -24.8876   31.2775 H   0  0  0  0  0  0  0  0  0  0  0  0
   -9.1813  -25.8473   28.9330 H   0  0  0  0  0  0  0  0  0  0  0  0
  -11.4501  -26.7751   28.7187 H   0  0  0  0  0  0  0  0  0  0  0  0
  1  2  1  0
  2  3  1  0
  3  4  1  0
  4  5  1  0
  5  6  2  0
  6  7  1  0
  7  8  1  0
  8  9  2  0
  2 10  1  0
 10 11  2  0
 10 12  1  0
 12 13  2  0
 13 14  1  0
 14 15  1  0
 15 16  2  0
 16 17  1  0
 17 18  2  0
 18 19  1  0
 19 20  2  0
  9  5  1  0
 20 12  1  0
 19 14  1  0
  1 21  1  0
  1 22  1  0
  1 23  1  0
  3 24  1  0
  3 25  1  0
  4 26  1  0
  4 27  1  0
  6 28  1  0
  7 29  1  0
  8 30  1  0
 13 31  1  0
 15 32  1  0
 16 33  1  0
 17 34  1  0
M  END
>  <Energy>  (1214) 
137.77920316447631

>  <compound_id>  (1214) 
62300

>  <target_id>  (1214) 
1

>  <reference_id>  (1214) 
107

>  <inspiration_ids>  (1214) 
[107, 35]

>  <energy_score>  (1214) 
61.54057133266855

>  <distance_score>  (1214) 
2.9458825264104873

>  <path>  (1214) 
/opt/xchem-fragalysis-2/maxwin/BulkDock/SCRATCH/511021/C62300-P107/C62300-P107.minimised.mol

>  <scratch_subdir>  (1214) 
/opt/xchem-fragalysis-2/maxwin/BulkDock/SCRATCH/511021/C62300-P107

>  <fragmenstein_runtime>  (1214) 
3.7739851474761963

>  <fragmenstein_outcome>  (1214) 
too moved

>  <fragmenstein_mode>  (1214) 
expansion

>  <fragmenstein_error>  (1214) 


$$$$
C62300-P35
     RDKit          3D

 34 36  0  0  0  0  0  0  0  0999 V2000
  -10.9048  -22.4336   35.9031 C   0  0  0  0  0  0  0  0  0  0  0  0
  -10.8501  -21.6007   34.7432 N   0  0  0  0  0  0  0  0  0  0  0  0
  -11.5068  -20.3152   34.7090 C   0  0  0  0  0  0  0  0  0  0  0  0
  -10.5391  -19.1495   34.7239 C   0  0  0  0  0  0  0  0  0  0  0  0
   -9.8144  -18.9542   36.0042 C   0  0  0  0  0  0  0  0  0  0  0  0
   -8.5248  -18.5074   36.1527 C   0  0  0  0  0  0  0  0  0  0  0  0
   -8.3195  -18.4425   37.4971 N   0  0  0  0  0  0  0  0  0  0  0  0
   -9.4654  -18.8483   38.1132 C   0  0  0  0  0  0  0  0  0  0  0  0
  -10.4043  -19.1391   37.2398 N   0  0  0  0  0  0  0  0  0  0  0  0
  -10.1626  -22.0338   33.6510 C   0  0  0  0  0  0  0  0  0  0  0  0
   -8.9739  -21.7773   33.5173 O   0  0  0  0  0  0  0  0  0  0  0  0
  -10.9344  -22.7114   32.6246 C   0  0  0  0  0  0  0  0  0  0  0  0
  -10.8678  -24.0586   32.3419 C   0  0  0  0  0  0  0  0  0  0  0  0
  -11.3871  -24.1791   31.0849 N   0  0  0  0  0  0  0  0  0  0  0  0
  -11.3699  -25.2733   30.2339 C   0  0  0  0  0  0  0  0  0  0  0  0
  -11.7620  -25.1163   28.9634 C   0  0  0  0  0  0  0  0  0  0  0  0
  -12.1998  -23.7371   28.6063 C   0  0  0  0  0  0  0  0  0  0  0  0
  -12.2640  -22.7145   29.4020 N   0  0  0  0  0  0  0  0  0  0  0  0
  -11.8351  -22.9228   30.6809 C   0  0  0  0  0  0  0  0  0  0  0  0
  -11.6288  -22.0378   31.6330 N   0  0  0  0  0  0  0  0  0  0  0  0
  -10.4302  -21.9092   36.7330 H   0  0  0  0  0  0  0  0  0  0  0  0
  -11.9401  -22.6821   36.1307 H   0  0  0  0  0  0  0  0  0  0  0  0
  -10.3275  -23.3391   35.7258 H   0  0  0  0  0  0  0  0  0  0  0  0
  -12.1971  -20.2501   35.5423 H   0  0  0  0  0  0  0  0  0  0  0  0
  -12.0983  -20.2707   33.7898 H   0  0  0  0  0  0  0  0  0  0  0  0
  -11.1195  -18.2345   34.5781 H   0  0  0  0  0  0  0  0  0  0  0  0
   -9.8256  -19.2279   33.8976 H   0  0  0  0  0  0  0  0  0  0  0  0
   -7.7616  -18.2352   35.4366 H   0  0  0  0  0  0  0  0  0  0  0  0
   -7.4515  -18.1499   37.9328 H   0  0  0  0  0  0  0  0  0  0  0  0
   -9.5511  -18.9076   39.1891 H   0  0  0  0  0  0  0  0  0  0  0  0
  -10.3760  -24.8751   32.8490 H   0  0  0  0  0  0  0  0  0  0  0  0
  -11.0012  -26.2092   30.6318 H   0  0  0  0  0  0  0  0  0  0  0  0
  -11.7693  -25.8954   28.2161 H   0  0  0  0  0  0  0  0  0  0  0  0
  -12.4983  -23.6066   27.5526 H   0  0  0  0  0  0  0  0  0  0  0  0
  1  2  1  0
  2  3  1  0
  3  4  1  0
  4  5  1  0
  5  6  2  0
  6  7  1  0
  7  8  1  0
  8  9  2  0
  2 10  1  0
 10 11  2  0
 10 12  1  0
 12 13  2  0
 13 14  1  0
 14 15  1  0
 15 16  2  0
 16 17  1  0
 17 18  2  0
 18 19  1  0
 19 20  2  0
  9  5  1  0
 20 12  1  0
 19 14  1  0
  1 21  1  0
  1 22  1  0
  1 23  1  0
  3 24  1  0
  3 25  1  0
  4 26  1  0
  4 27  1  0
  6 28  1  0
  7 29  1  0
  8 30  1  0
 13 31  1  0
 15 32  1  0
 16 33  1  0
 17 34  1  0
M  END
>  <Energy>  (1215) 
76.483569232957137

>  <compound_id>  (1215) 
62300

>  <target_id>  (1215) 
1

>  <reference_id>  (1215) 
35

>  <inspiration_ids>  (1215) 
[107, 35]

>  <energy_score>  (1215) 
0.24493740114462526

>  <distance_score>  (1215) 
1.0388855254765965

>  <path>  (1215) 
/opt/xchem-fragalysis-2/maxwin/BulkDock/SCRATCH/511021/C62300-P35/C62300-P35.minimised.mol

>  <scratch_subdir>  (1215) 
/opt/xchem-fragalysis-2/maxwin/BulkDock/SCRATCH/511021/C62300-P35

>  <fragmenstein_runtime>  (1215) 
2.8331775665283203

>  <fragmenstein_outcome>  (1215) 
too moved

>  <fragmenstein_mode>  (1215) 
expansion

>  <fragmenstein_error>  (1215) 


$$$$
C19453-P107
     RDKit          3D

 32 35  0  0  0  0  0  0  0  0999 V2000
  -12.4925  -23.8285   26.1839 O   0  0  0  0  0  0  0  0  0  0  0  0
  -12.1790  -24.1110   27.2733 C   0  0  0  0  0  0  0  0  0  0  0  0
  -12.2860  -23.2831   28.5155 C   0  0  0  0  0  0  0  0  0  0  0  0
  -11.5006  -22.0416   28.6084 C   0  0  0  0  0  0  0  0  0  0  0  0
  -11.2243  -21.3722   29.6826 N   0  0  0  0  0  0  0  0  0  0  0  0
  -11.6716  -21.8910   30.8597 C   0  0  0  0  0  0  0  0  0  0  0  0
  -11.5204  -21.4288   32.0805 N   0  0  0  0  0  0  0  0  0  0  0  0
  -12.1729  -22.3074   32.8992 C   0  0  0  0  0  0  0  0  0  0  0  0
  -12.7414  -23.3172   32.1708 C   0  0  0  0  0  0  0  0  0  0  0  0
  -12.4485  -23.0285   30.8688 N   0  0  0  0  0  0  0  0  0  0  0  0
  -12.7769  -23.6886   29.7020 C   0  0  0  0  0  0  0  0  0  0  0  0
  -11.4894  -25.3163   27.7911 N   0  0  0  0  0  0  0  0  0  0  0  0
  -12.4808  -26.4015   28.1835 C   0  0  0  0  0  0  0  0  0  0  0  0
  -11.2609  -27.2456   28.3710 C   0  0  0  0  0  0  0  0  0  0  0  0
  -10.5030  -26.8170   29.7128 C   0  0  0  0  0  0  0  0  0  0  0  0
   -9.6950  -25.7095   29.8198 C   0  0  0  0  0  0  0  0  0  0  0  0
   -9.6370  -25.2667   31.0988 N   0  0  0  0  0  0  0  0  0  0  0  0
  -10.3256  -26.1383   31.7856 C   0  0  0  0  0  0  0  0  0  0  0  0
  -10.7318  -27.1861   31.0071 N   0  0  0  0  0  0  0  0  0  0  0  0
  -10.9017  -26.4797   27.0788 C   0  0  0  0  0  0  0  0  0  0  0  0
  -11.1260  -21.6734   27.6453 H   0  0  0  0  0  0  0  0  0  0  0  0
  -12.1953  -22.1736   33.9708 H   0  0  0  0  0  0  0  0  0  0  0  0
  -13.3168  -24.1768   32.4699 H   0  0  0  0  0  0  0  0  0  0  0  0
  -13.3703  -24.5591   29.8602 H   0  0  0  0  0  0  0  0  0  0  0  0
  -12.9480  -26.2250   29.1262 H   0  0  0  0  0  0  0  0  0  0  0  0
  -13.2211  -26.6577   27.4172 H   0  0  0  0  0  0  0  0  0  0  0  0
  -11.5398  -28.2868   28.2939 H   0  0  0  0  0  0  0  0  0  0  0  0
   -9.2507  -25.1259   29.0263 H   0  0  0  0  0  0  0  0  0  0  0  0
  -10.5148  -26.0819   32.8476 H   0  0  0  0  0  0  0  0  0  0  0  0
  -11.2147  -28.0032   31.3439 H   0  0  0  0  0  0  0  0  0  0  0  0
  -11.3682  -26.7108   26.1199 H   0  0  0  0  0  0  0  0  0  0  0  0
   -9.8278  -26.4057   26.9566 H   0  0  0  0  0  0  0  0  0  0  0  0
  1  2  2  0
  2  3  1  0
  3  4  1  0
  4  5  2  0
  5  6  1  0
  6  7  2  0
  7  8  1  0
  8  9  2  0
  9 10  1  0
 10 11  1  0
  2 12  1  0
 12 13  1  0
 13 14  1  0
 14 15  1  0
 15 16  2  0
 16 17  1  0
 17 18  2  0
 18 19  1  0
 14 20  1  0
 11  3  2  0
 20 12  1  0
 10  6  1  0
 19 15  1  0
  4 21  1  0
  8 22  1  0
  9 23  1  0
 11 24  1  0
 13 25  1  0
 13 26  1  0
 14 27  1  0
 16 28  1  0
 18 29  1  0
 19 30  1  0
 20 31  1  0
 20 32  1  0
M  END
>  <Energy>  (1216) 
84.194560389995559

>  <compound_id>  (1216) 
19453

>  <target_id>  (1216) 
1

>  <reference_id>  (1216) 
107

>  <inspiration_ids>  (1216) 
[107, 35]

>  <energy_score>  (1216) 
19.388886875578777

>  <distance_score>  (1216) 
1.8887152596920296

>  <path>  (1216) 
/opt/xchem-fragalysis-2/maxwin/BulkDock/SCRATCH/511021/C19453-P107/C19453-P107.minimised.mol

>  <scratch_subdir>  (1216) 
/opt/xchem-fragalysis-2/maxwin/BulkDock/SCRATCH/511021/C19453-P107

>  <fragmenstein_runtime>  (1216) 
3.6717686653137207

>  <fragmenstein_outcome>  (1216) 
too moved

>  <fragmenstein_mode>  (1216) 
expansion

>  <fragmenstein_error>  (1216) 


$$$$
C19453-P35
     RDKit          3D

 32 35  0  0  0  0  0  0  0  0999 V2000
  -12.6006  -27.4047   31.2555 O   0  0  0  0  0  0  0  0  0  0  0  0
  -13.4551  -27.1818   30.4377 C   0  0  0  0  0  0  0  0  0  0  0  0
  -14.4872  -26.1958   30.7798 C   0  0  0  0  0  0  0  0  0  0  0  0
  -15.9440  -26.4173   30.7552 C   0  0  0  0  0  0  0  0  0  0  0  0
  -16.8452  -25.6420   31.2800 N   0  0  0  0  0  0  0  0  0  0  0  0
  -16.3679  -24.5230   31.9159 C   0  0  0  0  0  0  0  0  0  0  0  0
  -17.0256  -23.6318   32.6281 N   0  0  0  0  0  0  0  0  0  0  0  0
  -16.0963  -22.6880   32.9942 C   0  0  0  0  0  0  0  0  0  0  0  0
  -14.8431  -23.0118   32.5319 C   0  0  0  0  0  0  0  0  0  0  0  0
  -15.0143  -24.1898   31.8631 N   0  0  0  0  0  0  0  0  0  0  0  0
  -14.0799  -25.0181   31.2788 C   0  0  0  0  0  0  0  0  0  0  0  0
  -13.6020  -27.6518   29.1104 N   0  0  0  0  0  0  0  0  0  0  0  0
  -12.9022  -26.6943   28.0803 C   0  0  0  0  0  0  0  0  0  0  0  0
  -11.7174  -27.6249   28.0280 C   0  0  0  0  0  0  0  0  0  0  0  0
  -10.6405  -27.2043   29.0759 C   0  0  0  0  0  0  0  0  0  0  0  0
  -10.1523  -25.9247   29.2143 C   0  0  0  0  0  0  0  0  0  0  0  0
   -9.4184  -25.8040   30.3534 N   0  0  0  0  0  0  0  0  0  0  0  0
   -9.4414  -26.9973   30.9046 C   0  0  0  0  0  0  0  0  0  0  0  0
  -10.1014  -27.9048   30.1190 N   0  0  0  0  0  0  0  0  0  0  0  0
  -12.8025  -28.6563   28.3266 C   0  0  0  0  0  0  0  0  0  0  0  0
  -16.2763  -27.3406   30.2527 H   0  0  0  0  0  0  0  0  0  0  0  0
  -16.3749  -21.8355   33.5990 H   0  0  0  0  0  0  0  0  0  0  0  0
  -13.8791  -22.5428   32.6568 H   0  0  0  0  0  0  0  0  0  0  0  0
  -13.0374  -24.7340   31.3773 H   0  0  0  0  0  0  0  0  0  0  0  0
  -13.5055  -26.6220   27.1640 H   0  0  0  0  0  0  0  0  0  0  0  0
  -12.7603  -25.6783   28.4627 H   0  0  0  0  0  0  0  0  0  0  0  0
  -11.2701  -27.7338   27.0339 H   0  0  0  0  0  0  0  0  0  0  0  0
  -10.3457  -25.0630   28.5902 H   0  0  0  0  0  0  0  0  0  0  0  0
   -8.9780  -27.2676   31.8454 H   0  0  0  0  0  0  0  0  0  0  0  0
  -10.2606  -28.8734   30.3562 H   0  0  0  0  0  0  0  0  0  0  0  0
  -12.4896  -29.5002   28.9484 H   0  0  0  0  0  0  0  0  0  0  0  0
  -13.3784  -29.0470   27.4813 H   0  0  0  0  0  0  0  0  0  0  0  0
  1  2  2  0
  2  3  1  0
  3  4  1  0
  4  5  2  0
  5  6  1  0
  6  7  2  0
  7  8  1  0
  8  9  2  0
  9 10  1  0
 10 11  1  0
  2 12  1  0
 12 13  1  0
 13 14  1  0
 14 15  1  0
 15 16  2  0
 16 17  1  0
 17 18  2  0
 18 19  1  0
 14 20  1  0
 11  3  2  0
 20 12  1  0
 10  6  1  0
 19 15  1  0
  4 21  1  0
  8 22  1  0
  9 23  1  0
 11 24  1  0
 13 25  1  0
 13 26  1  0
 14 27  1  0
 16 28  1  0
 18 29  1  0
 19 30  1  0
 20 31  1  0
 20 32  1  0
M  END
>  <Energy>  (1217) 
55.19370021422872

>  <compound_id>  (1217) 
19453

>  <target_id>  (1217) 
1

>  <reference_id>  (1217) 
35

>  <inspiration_ids>  (1217) 
[107, 35]

>  <energy_score>  (1217) 
-6.635946356723764

>  <distance_score>  (1217) 
3.964437914297185

>  <path>  (1217) 
/opt/xchem-fragalysis-2/maxwin/BulkDock/SCRATCH/511021/C19453-P35/C19453-P35.minimised.mol

>  <scratch_subdir>  (1217) 
/opt/xchem-fragalysis-2/maxwin/BulkDock/SCRATCH/511021/C19453-P35

>  <fragmenstein_runtime>  (1217) 
5.175945520401001

>  <fragmenstein_outcome>  (1217) 
too moved

>  <fragmenstein_mode>  (1217) 
expansion

>  <fragmenstein_error>  (1217) 


$$$$
C19460-P107
     RDKit          3D

 41 43  0  0  0  0  0  0  0  0999 V2000
  -13.6474  -26.1616   26.8407 C   0  0  0  0  0  0  0  0  0  0  0  0
  -12.1811  -26.2956   27.3491 C   0  0  0  0  0  0  0  0  0  0  0  0
  -12.1241  -27.4970   28.3674 C   0  0  0  0  0  0  0  0  0  0  0  0
  -11.4499  -27.1287   29.5956 N   0  0  0  0  0  0  0  0  0  0  0  0
  -11.7400  -26.1211   30.5451 C   0  0  0  0  0  0  0  0  0  0  0  0
  -12.6498  -25.3753   30.6209 O   0  0  0  0  0  0  0  0  0  0  0  0
  -10.7395  -25.8846   31.5216 C   0  0  0  0  0  0  0  0  0  0  0  0
  -10.8286  -25.0766   32.6383 C   0  0  0  0  0  0  0  0  0  0  0  0
   -9.5958  -24.7636   33.1160 N   0  0  0  0  0  0  0  0  0  0  0  0
   -8.7753  -25.3853   32.3132 C   0  0  0  0  0  0  0  0  0  0  0  0
   -9.4266  -26.1717   31.4251 N   0  0  0  0  0  0  0  0  0  0  0  0
  -11.9014  -24.9824   28.0729 N   0  0  0  0  0  0  0  0  0  0  0  0
  -10.5048  -25.2741   27.6160 C   0  0  0  0  0  0  0  0  0  0  0  0
  -12.2421  -23.6789   27.7509 C   0  0  0  0  0  0  0  0  0  0  0  0
  -12.7646  -23.2349   26.7791 O   0  0  0  0  0  0  0  0  0  0  0  0
  -11.9051  -22.7981   28.8339 C   0  0  0  0  0  0  0  0  0  0  0  0
  -11.0432  -21.7580   28.7097 C   0  0  0  0  0  0  0  0  0  0  0  0
  -10.7861  -21.1404   29.8843 N   0  0  0  0  0  0  0  0  0  0  0  0
  -11.4864  -21.7859   30.7781 C   0  0  0  0  0  0  0  0  0  0  0  0
  -11.5453  -21.5680   32.1174 N   0  0  0  0  0  0  0  0  0  0  0  0
  -12.6090  -22.0160   32.7030 C   0  0  0  0  0  0  0  0  0  0  0  0
  -13.7407  -22.6894   32.0323 C   0  0  0  0  0  0  0  0  0  0  0  0
  -13.5294  -22.9889   30.7441 C   0  0  0  0  0  0  0  0  0  0  0  0
  -12.3648  -22.6299   30.1219 N   0  0  0  0  0  0  0  0  0  0  0  0
  -14.1249  -27.1213   26.6420 H   0  0  0  0  0  0  0  0  0  0  0  0
  -14.2806  -25.6263   27.5525 H   0  0  0  0  0  0  0  0  0  0  0  0
  -13.6664  -25.5849   25.9086 H   0  0  0  0  0  0  0  0  0  0  0  0
  -11.6402  -26.5225   26.4114 H   0  0  0  0  0  0  0  0  0  0  0  0
  -11.5922  -28.3165   27.9042 H   0  0  0  0  0  0  0  0  0  0  0  0
  -13.1175  -27.8680   28.6156 H   0  0  0  0  0  0  0  0  0  0  0  0
  -10.6247  -27.6297   29.8897 H   0  0  0  0  0  0  0  0  0  0  0  0
  -11.7248  -24.6503   33.0687 H   0  0  0  0  0  0  0  0  0  0  0  0
   -7.7054  -25.4042   32.3695 H   0  0  0  0  0  0  0  0  0  0  0  0
   -9.0137  -26.9349   30.9218 H   0  0  0  0  0  0  0  0  0  0  0  0
  -10.3819  -24.9419   26.5763 H   0  0  0  0  0  0  0  0  0  0  0  0
  -10.0424  -26.2506   27.8162 H   0  0  0  0  0  0  0  0  0  0  0  0
   -9.8648  -24.5810   28.1823 H   0  0  0  0  0  0  0  0  0  0  0  0
  -10.5760  -21.4676   27.7960 H   0  0  0  0  0  0  0  0  0  0  0  0
  -12.7148  -21.8845   33.7902 H   0  0  0  0  0  0  0  0  0  0  0  0
  -14.6222  -22.9602   32.5931 H   0  0  0  0  0  0  0  0  0  0  0  0
  -14.2124  -23.5264   30.1200 H   0  0  0  0  0  0  0  0  0  0  0  0
  1  2  1  0
  2  3  1  0
  3  4  1  0
  4  5  1  0
  5  6  2  0
  5  7  1  0
  7  8  2  0
  8  9  1  0
  9 10  2  0
 10 11  1  0
  2 12  1  0
 12 13  1  0
 12 14  1  0
 14 15  2  0
 14 16  1  0
 16 17  2  0
 17 18  1  0
 18 19  2  0
 19 20  1  0
 20 21  2  0
 21 22  1  0
 22 23  2  0
 23 24  1  0
 11  7  1  0
 24 16  1  0
 24 19  1  0
  1 25  1  0
  1 26  1  0
  1 27  1  0
  2 28  1  0
  3 29  1  0
  3 30  1  0
  4 31  1  0
  8 32  1  0
 10 33  1  0
 11 34  1  0
 13 35  1  0
 13 36  1  0
 13 37  1  0
 17 38  1  0
 21 39  1  0
 22 40  1  0
 23 41  1  0
M  END
>  <Energy>  (1218) 
87.815602804509084

>  <compound_id>  (1218) 
19460

>  <target_id>  (1218) 
1

>  <reference_id>  (1218) 
107

>  <inspiration_ids>  (1218) 
[107, 35]

>  <energy_score>  (1218) 
70.61505775453679

>  <distance_score>  (1218) 
3.713942824152355

>  <path>  (1218) 
/opt/xchem-fragalysis-2/maxwin/BulkDock/SCRATCH/511021/C19460-P107/C19460-P107.minimised.mol

>  <scratch_subdir>  (1218) 
/opt/xchem-fragalysis-2/maxwin/BulkDock/SCRATCH/511021/C19460-P107

>  <fragmenstein_runtime>  (1218) 
6.4361572265625

>  <fragmenstein_outcome>  (1218) 
too moved

>  <fragmenstein_mode>  (1218) 
expansion

>  <fragmenstein_error>  (1218) 


$$$$
C19460-P35
     RDKit          3D

 41 43  0  0  0  0  0  0  0  0999 V2000
  -14.2657  -28.8702   27.6640 C   0  0  0  0  0  0  0  0  0  0  0  0
  -14.8130  -28.4860   29.0624 C   0  0  0  0  0  0  0  0  0  0  0  0
  -13.9308  -29.3406   30.0735 C   0  0  0  0  0  0  0  0  0  0  0  0
  -12.6860  -28.6549   30.3359 N   0  0  0  0  0  0  0  0  0  0  0  0
  -12.0895  -28.2387   31.5564 C   0  0  0  0  0  0  0  0  0  0  0  0
  -12.4229  -28.4186   32.6903 O   0  0  0  0  0  0  0  0  0  0  0  0
  -10.9525  -27.3871   31.2850 C   0  0  0  0  0  0  0  0  0  0  0  0
  -10.0423  -27.3180   30.2511 C   0  0  0  0  0  0  0  0  0  0  0  0
   -9.3208  -26.1545   30.3063 N   0  0  0  0  0  0  0  0  0  0  0  0
   -9.6732  -25.5850   31.4350 C   0  0  0  0  0  0  0  0  0  0  0  0
  -10.6430  -26.2980   32.0698 N   0  0  0  0  0  0  0  0  0  0  0  0
  -14.5449  -27.0042   29.4791 N   0  0  0  0  0  0  0  0  0  0  0  0
  -15.7464  -26.7675   28.6202 C   0  0  0  0  0  0  0  0  0  0  0  0
  -14.7055  -26.3467   30.7335 C   0  0  0  0  0  0  0  0  0  0  0  0
  -15.1734  -26.7425   31.7654 O   0  0  0  0  0  0  0  0  0  0  0  0
  -14.0972  -25.0124   30.7235 C   0  0  0  0  0  0  0  0  0  0  0  0
  -14.2924  -24.0232   31.6788 C   0  0  0  0  0  0  0  0  0  0  0  0
  -13.5413  -22.9062   31.4442 N   0  0  0  0  0  0  0  0  0  0  0  0
  -12.8719  -23.1619   30.3476 C   0  0  0  0  0  0  0  0  0  0  0  0
  -12.0328  -22.3201   29.6762 N   0  0  0  0  0  0  0  0  0  0  0  0
  -11.4716  -22.8052   28.6156 C   0  0  0  0  0  0  0  0  0  0  0  0
  -11.6311  -24.1771   28.0794 C   0  0  0  0  0  0  0  0  0  0  0  0
  -12.4878  -24.9518   28.7558 C   0  0  0  0  0  0  0  0  0  0  0  0
  -13.1451  -24.4549   29.8813 N   0  0  0  0  0  0  0  0  0  0  0  0
  -13.3025  -28.3838   27.4779 H   0  0  0  0  0  0  0  0  0  0  0  0
  -14.1257  -29.9536   27.5778 H   0  0  0  0  0  0  0  0  0  0  0  0
  -14.9437  -28.6016   26.8491 H   0  0  0  0  0  0  0  0  0  0  0  0
  -15.8298  -28.8705   29.2449 H   0  0  0  0  0  0  0  0  0  0  0  0
  -13.7153  -30.3475   29.7044 H   0  0  0  0  0  0  0  0  0  0  0  0
  -14.4658  -29.4331   31.0197 H   0  0  0  0  0  0  0  0  0  0  0  0
  -12.1737  -28.2503   29.5652 H   0  0  0  0  0  0  0  0  0  0  0  0
   -9.9050  -28.0116   29.4315 H   0  0  0  0  0  0  0  0  0  0  0  0
   -9.2834  -24.6613   31.8396 H   0  0  0  0  0  0  0  0  0  0  0  0
  -11.1561  -26.0054   32.8944 H   0  0  0  0  0  0  0  0  0  0  0  0
  -15.6045  -26.8998   27.5453 H   0  0  0  0  0  0  0  0  0  0  0  0
  -16.6950  -27.1560   29.0208 H   0  0  0  0  0  0  0  0  0  0  0  0
  -15.9014  -25.6857   28.6811 H   0  0  0  0  0  0  0  0  0  0  0  0
  -14.9500  -24.0735   32.5385 H   0  0  0  0  0  0  0  0  0  0  0  0
  -10.8004  -22.1533   28.0407 H   0  0  0  0  0  0  0  0  0  0  0  0
  -11.0737  -24.4827   27.2077 H   0  0  0  0  0  0  0  0  0  0  0  0
  -12.6755  -25.9689   28.4544 H   0  0  0  0  0  0  0  0  0  0  0  0
  1  2  1  0
  2  3  1  0
  3  4  1  0
  4  5  1  0
  5  6  2  0
  5  7  1  0
  7  8  2  0
  8  9  1  0
  9 10  2  0
 10 11  1  0
  2 12  1  0
 12 13  1  0
 12 14  1  0
 14 15  2  0
 14 16  1  0
 16 17  2  0
 17 18  1  0
 18 19  2  0
 19 20  1  0
 20 21  2  0
 21 22  1  0
 22 23  2  0
 23 24  1  0
 11  7  1  0
 24 16  1  0
 24 19  1  0
  1 25  1  0
  1 26  1  0
  1 27  1  0
  2 28  1  0
  3 29  1  0
  3 30  1  0
  4 31  1  0
  8 32  1  0
 10 33  1  0
 11 34  1  0
 13 35  1  0
 13 36  1  0
 13 37  1  0
 17 38  1  0
 21 39  1  0
 22 40  1  0
 23 41  1  0
M  END
>  <Energy>  (1219) 
45.522700819507705

>  <compound_id>  (1219) 
19460

>  <target_id>  (1219) 
1

>  <reference_id>  (1219) 
35

>  <inspiration_ids>  (1219) 
[107, 35]

>  <energy_score>  (1219) 
28.322155769535243

>  <distance_score>  (1219) 
2.3499802149733977

>  <path>  (1219) 
/opt/xchem-fragalysis-2/maxwin/BulkDock/SCRATCH/511021/C19460-P35/C19460-P35.minimised.mol

>  <scratch_subdir>  (1219) 
/opt/xchem-fragalysis-2/maxwin/BulkDock/SCRATCH/511021/C19460-P35

>  <fragmenstein_runtime>  (1219) 
6.192059278488159

>  <fragmenstein_outcome>  (1219) 
too moved

>  <fragmenstein_mode>  (1219) 
expansion

>  <fragmenstein_error>  (1219) 


$$$$
C19461-P107
     RDKit          3D

 41 43  0  0  0  0  0  0  0  0999 V2000
  -14.7695  -20.1624   34.2658 C   0  0  0  0  0  0  0  0  0  0  0  0
  -15.4546  -21.2652   33.4444 C   0  0  0  0  0  0  0  0  0  0  0  0
  -16.0194  -22.3466   34.3758 C   0  0  0  0  0  0  0  0  0  0  0  0
  -16.6005  -20.6484   32.6003 C   0  0  0  0  0  0  0  0  0  0  0  0
  -17.3582  -21.6522   31.8966 N   0  0  0  0  0  0  0  0  0  0  0  0
  -18.8492  -22.0038   31.9631 C   0  0  0  0  0  0  0  0  0  0  0  0
  -19.7197  -21.4907   32.5385 O   0  0  0  0  0  0  0  0  0  0  0  0
  -19.0559  -23.2294   31.2298 C   0  0  0  0  0  0  0  0  0  0  0  0
  -19.9367  -23.5308   30.2147 C   0  0  0  0  0  0  0  0  0  0  0  0
  -19.7151  -24.8043   29.7372 N   0  0  0  0  0  0  0  0  0  0  0  0
  -18.8342  -25.3302   30.5579 C   0  0  0  0  0  0  0  0  0  0  0  0
  -18.3787  -24.4060   31.4534 N   0  0  0  0  0  0  0  0  0  0  0  0
  -14.4514  -21.8770   32.5930 N   0  0  0  0  0  0  0  0  0  0  0  0
  -13.0825  -22.4703   32.9371 C   0  0  0  0  0  0  0  0  0  0  0  0
  -12.5048  -22.4960   33.9435 O   0  0  0  0  0  0  0  0  0  0  0  0
  -12.5178  -23.0669   31.7529 C   0  0  0  0  0  0  0  0  0  0  0  0
  -11.6497  -24.1345   31.7281 C   0  0  0  0  0  0  0  0  0  0  0  0
  -11.4499  -24.3762   30.4072 N   0  0  0  0  0  0  0  0  0  0  0  0
  -10.7069  -25.3699   29.7952 C   0  0  0  0  0  0  0  0  0  0  0  0
  -10.6166  -25.3771   28.4592 C   0  0  0  0  0  0  0  0  0  0  0  0
  -11.3420  -24.2705   27.7684 C   0  0  0  0  0  0  0  0  0  0  0  0
  -12.0550  -23.3441   28.3278 N   0  0  0  0  0  0  0  0  0  0  0  0
  -12.1293  -23.3958   29.6853 C   0  0  0  0  0  0  0  0  0  0  0  0
  -12.8055  -22.6104   30.4885 N   0  0  0  0  0  0  0  0  0  0  0  0
  -13.7695  -20.4204   34.6135 H   0  0  0  0  0  0  0  0  0  0  0  0
  -14.6542  -19.2600   33.6762 H   0  0  0  0  0  0  0  0  0  0  0  0
  -15.3949  -19.8637   35.1142 H   0  0  0  0  0  0  0  0  0  0  0  0
  -16.7042  -21.9247   35.1186 H   0  0  0  0  0  0  0  0  0  0  0  0
  -16.5562  -23.1267   33.8259 H   0  0  0  0  0  0  0  0  0  0  0  0
  -15.2134  -22.8649   34.8929 H   0  0  0  0  0  0  0  0  0  0  0  0
  -17.2945  -20.0889   33.2369 H   0  0  0  0  0  0  0  0  0  0  0  0
  -16.2028  -19.9679   31.8415 H   0  0  0  0  0  0  0  0  0  0  0  0
  -16.8921  -22.2684   31.2264 H   0  0  0  0  0  0  0  0  0  0  0  0
  -20.6745  -22.8775   29.7653 H   0  0  0  0  0  0  0  0  0  0  0  0
  -18.4526  -26.3429   30.5323 H   0  0  0  0  0  0  0  0  0  0  0  0
  -17.6011  -24.5435   32.0939 H   0  0  0  0  0  0  0  0  0  0  0  0
  -14.6888  -22.1068   31.6284 H   0  0  0  0  0  0  0  0  0  0  0  0
  -11.2217  -24.7320   32.5207 H   0  0  0  0  0  0  0  0  0  0  0  0
  -10.2209  -26.0986   30.4336 H   0  0  0  0  0  0  0  0  0  0  0  0
  -10.0573  -26.1027   27.8874 H   0  0  0  0  0  0  0  0  0  0  0  0
  -11.2465  -24.2698   26.6695 H   0  0  0  0  0  0  0  0  0  0  0  0
  1  2  1  0
  2  3  1  0
  2  4  1  0
  4  5  1  0
  5  6  1  0
  6  7  2  0
  6  8  1  0
  8  9  2  0
  9 10  1  0
 10 11  2  0
 11 12  1  0
  2 13  1  0
 13 14  1  0
 14 15  2  0
 14 16  1  0
 16 17  2  0
 17 18  1  0
 18 19  1  0
 19 20  2  0
 20 21  1  0
 21 22  2  0
 22 23  1  0
 23 24  2  0
 12  8  1  0
 24 16  1  0
 23 18  1  0
  1 25  1  0
  1 26  1  0
  1 27  1  0
  3 28  1  0
  3 29  1  0
  3 30  1  0
  4 31  1  0
  4 32  1  0
  5 33  1  0
  9 34  1  0
 11 35  1  0
 12 36  1  0
 13 37  1  0
 17 38  1  0
 19 39  1  0
 20 40  1  0
 21 41  1  0
M  END
>  <Energy>  (1220) 
44.338376053725149

>  <compound_id>  (1220) 
19461

>  <target_id>  (1220) 
1

>  <reference_id>  (1220) 
107

>  <inspiration_ids>  (1220) 
[107, 35]

>  <energy_score>  (1220) 
-4.281236235527587

>  <distance_score>  (1220) 
2.292618021638305

>  <path>  (1220) 
/opt/xchem-fragalysis-2/maxwin/BulkDock/SCRATCH/511021/C19461-P107/C19461-P107.minimised.mol

>  <scratch_subdir>  (1220) 
/opt/xchem-fragalysis-2/maxwin/BulkDock/SCRATCH/511021/C19461-P107

>  <fragmenstein_runtime>  (1220) 
11.514623880386353

>  <fragmenstein_outcome>  (1220) 
too moved

>  <fragmenstein_mode>  (1220) 
expansion

>  <fragmenstein_error>  (1220) 


$$$$
C19461-P35
     RDKit          3D

 41 43  0  0  0  0  0  0  0  0999 V2000
  -10.7684  -21.5910   35.6664 C   0  0  0  0  0  0  0  0  0  0  0  0
  -10.8266  -20.3818   34.7092 C   0  0  0  0  0  0  0  0  0  0  0  0
  -12.0413  -19.4788   34.9968 C   0  0  0  0  0  0  0  0  0  0  0  0
   -9.5425  -19.5343   34.8946 C   0  0  0  0  0  0  0  0  0  0  0  0
   -9.6221  -18.8816   36.1953 N   0  0  0  0  0  0  0  0  0  0  0  0
   -9.0854  -17.5332   36.6619 C   0  0  0  0  0  0  0  0  0  0  0  0
   -8.4268  -16.7554   36.1112 O   0  0  0  0  0  0  0  0  0  0  0  0
   -9.6469  -17.3008   37.9749 C   0  0  0  0  0  0  0  0  0  0  0  0
   -9.1085  -17.1008   39.2240 C   0  0  0  0  0  0  0  0  0  0  0  0
  -10.0891  -16.7863   40.1445 N   0  0  0  0  0  0  0  0  0  0  0  0
  -11.2140  -16.8126   39.4730 C   0  0  0  0  0  0  0  0  0  0  0  0
  -11.0024  -17.1677   38.1771 N   0  0  0  0  0  0  0  0  0  0  0  0
  -11.0499  -21.0213   33.4387 N   0  0  0  0  0  0  0  0  0  0  0  0
  -12.2511  -21.8225   32.9255 C   0  0  0  0  0  0  0  0  0  0  0  0
  -13.2833  -22.0296   33.4163 O   0  0  0  0  0  0  0  0  0  0  0  0
  -11.9368  -22.4616   31.6753 C   0  0  0  0  0  0  0  0  0  0  0  0
  -11.7169  -23.8156   31.5597 C   0  0  0  0  0  0  0  0  0  0  0  0
  -11.6326  -24.0376   30.2259 N   0  0  0  0  0  0  0  0  0  0  0  0
  -11.4422  -25.2236   29.5406 C   0  0  0  0  0  0  0  0  0  0  0  0
  -11.3999  -25.1950   28.2032 C   0  0  0  0  0  0  0  0  0  0  0  0
  -11.5745  -23.8429   27.5968 C   0  0  0  0  0  0  0  0  0  0  0  0
  -11.7341  -22.7253   28.2329 N   0  0  0  0  0  0  0  0  0  0  0  0
  -11.7649  -22.8069   29.5875 C   0  0  0  0  0  0  0  0  0  0  0  0
  -11.8773  -21.8326   30.4638 N   0  0  0  0  0  0  0  0  0  0  0  0
  -11.7471  -22.0703   35.7795 H   0  0  0  0  0  0  0  0  0  0  0  0
  -10.0843  -22.3593   35.2801 H   0  0  0  0  0  0  0  0  0  0  0  0
  -10.3848  -21.3397   36.6564 H   0  0  0  0  0  0  0  0  0  0  0  0
  -12.9875  -19.9493   34.7241 H   0  0  0  0  0  0  0  0  0  0  0  0
  -12.1026  -19.1862   36.0471 H   0  0  0  0  0  0  0  0  0  0  0  0
  -11.9888  -18.5554   34.4191 H   0  0  0  0  0  0  0  0  0  0  0  0
   -8.6447  -20.1470   34.8599 H   0  0  0  0  0  0  0  0  0  0  0  0
   -9.4521  -18.7583   34.1313 H   0  0  0  0  0  0  0  0  0  0  0  0
  -10.0958  -19.3386   36.9611 H   0  0  0  0  0  0  0  0  0  0  0  0
   -8.0709  -17.1641   39.5129 H   0  0  0  0  0  0  0  0  0  0  0  0
  -12.1953  -16.5865   39.8684 H   0  0  0  0  0  0  0  0  0  0  0  0
  -11.6965  -17.2341   37.4474 H   0  0  0  0  0  0  0  0  0  0  0  0
  -10.2772  -21.1146   32.7868 H   0  0  0  0  0  0  0  0  0  0  0  0
  -11.6772  -24.6048   32.2935 H   0  0  0  0  0  0  0  0  0  0  0  0
  -11.3399  -26.1295   30.1239 H   0  0  0  0  0  0  0  0  0  0  0  0
  -11.2596  -26.0586   27.5705 H   0  0  0  0  0  0  0  0  0  0  0  0
  -11.5576  -23.8236   26.4941 H   0  0  0  0  0  0  0  0  0  0  0  0
  1  2  1  0
  2  3  1  0
  2  4  1  0
  4  5  1  0
  5  6  1  0
  6  7  2  0
  6  8  1  0
  8  9  2  0
  9 10  1  0
 10 11  2  0
 11 12  1  0
  2 13  1  0
 13 14  1  0
 14 15  2  0
 14 16  1  0
 16 17  2  0
 17 18  1  0
 18 19  1  0
 19 20  2  0
 20 21  1  0
 21 22  2  0
 22 23  1  0
 23 24  2  0
 12  8  1  0
 24 16  1  0
 23 18  1  0
  1 25  1  0
  1 26  1  0
  1 27  1  0
  3 28  1  0
  3 29  1  0
  3 30  1  0
  4 31  1  0
  4 32  1  0
  5 33  1  0
  9 34  1  0
 11 35  1  0
 12 36  1  0
 13 37  1  0
 17 38  1  0
 19 39  1  0
 20 40  1  0
 21 41  1  0
M  END
>  <Energy>  (1221) 
66.336694094784121

>  <compound_id>  (1221) 
19461

>  <target_id>  (1221) 
1

>  <reference_id>  (1221) 
35

>  <inspiration_ids>  (1221) 
[107, 35]

>  <energy_score>  (1221) 
17.717081805526732

>  <distance_score>  (1221) 
1.5553329235826854

>  <path>  (1221) 
/opt/xchem-fragalysis-2/maxwin/BulkDock/SCRATCH/511021/C19461-P35/C19461-P35.minimised.mol

>  <scratch_subdir>  (1221) 
/opt/xchem-fragalysis-2/maxwin/BulkDock/SCRATCH/511021/C19461-P35

>  <fragmenstein_runtime>  (1221) 
4.769548654556274

>  <fragmenstein_outcome>  (1221) 
too moved

>  <fragmenstein_mode>  (1221) 
expansion

>  <fragmenstein_error>  (1221) 


$$$$
C62301-P107
     RDKit          3D

 35 37  0  0  0  0  0  0  0  0999 V2000
  -13.3853  -24.5862   26.6511 O   0  0  0  0  0  0  0  0  0  0  0  0
  -12.6292  -24.3480   27.4882 C   0  0  0  0  0  0  0  0  0  0  0  0
  -11.4521  -25.1420   27.9998 N   0  0  0  0  0  0  0  0  0  0  0  0
  -11.0012  -26.4401   27.6632 C   0  0  0  0  0  0  0  0  0  0  0  0
   -9.5305  -26.5306   28.0593 C   0  0  0  0  0  0  0  0  0  0  0  0
   -9.0558  -25.2994   28.6043 O   0  0  0  0  0  0  0  0  0  0  0  0
  -11.8393  -27.2933   28.6404 C   0  0  0  0  0  0  0  0  0  0  0  0
  -11.4346  -26.9676   30.0587 C   0  0  0  0  0  0  0  0  0  0  0  0
  -11.0419  -27.7756   31.0856 C   0  0  0  0  0  0  0  0  0  0  0  0
  -10.6327  -26.9152   32.0573 N   0  0  0  0  0  0  0  0  0  0  0  0
  -10.7252  -25.6459   31.6272 C   0  0  0  0  0  0  0  0  0  0  0  0
  -11.2087  -25.6420   30.4173 N   0  0  0  0  0  0  0  0  0  0  0  0
  -12.6005  -23.2135   28.4358 C   0  0  0  0  0  0  0  0  0  0  0  0
  -11.5976  -22.1395   28.4650 C   0  0  0  0  0  0  0  0  0  0  0  0
  -11.1838  -21.5075   29.5210 N   0  0  0  0  0  0  0  0  0  0  0  0
  -11.6864  -21.9098   30.7228 C   0  0  0  0  0  0  0  0  0  0  0  0
  -11.3822  -21.4856   31.9306 N   0  0  0  0  0  0  0  0  0  0  0  0
  -12.1793  -22.1885   32.7912 C   0  0  0  0  0  0  0  0  0  0  0  0
  -12.9551  -23.0834   32.1064 C   0  0  0  0  0  0  0  0  0  0  0  0
  -12.6538  -22.8932   30.7867 N   0  0  0  0  0  0  0  0  0  0  0  0
  -13.0917  -23.5393   29.6496 C   0  0  0  0  0  0  0  0  0  0  0  0
  -11.0490  -24.6693   28.8078 H   0  0  0  0  0  0  0  0  0  0  0  0
  -11.2109  -26.6797   26.6191 H   0  0  0  0  0  0  0  0  0  0  0  0
   -8.9395  -26.8471   27.2156 H   0  0  0  0  0  0  0  0  0  0  0  0
   -9.3386  -27.2767   28.8226 H   0  0  0  0  0  0  0  0  0  0  0  0
   -9.3846  -25.2906   29.5266 H   0  0  0  0  0  0  0  0  0  0  0  0
  -11.7434  -28.3458   28.4136 H   0  0  0  0  0  0  0  0  0  0  0  0
  -12.9020  -27.0708   28.5058 H   0  0  0  0  0  0  0  0  0  0  0  0
  -10.9921  -28.8415   31.2318 H   0  0  0  0  0  0  0  0  0  0  0  0
  -10.1986  -27.1930   32.9228 H   0  0  0  0  0  0  0  0  0  0  0  0
  -10.4173  -24.7905   32.2144 H   0  0  0  0  0  0  0  0  0  0  0  0
  -11.1875  -21.8677   27.4847 H   0  0  0  0  0  0  0  0  0  0  0  0
  -12.1503  -22.0248   33.8595 H   0  0  0  0  0  0  0  0  0  0  0  0
  -13.6771  -23.8091   32.4435 H   0  0  0  0  0  0  0  0  0  0  0  0
  -13.7081  -24.4018   29.8127 H   0  0  0  0  0  0  0  0  0  0  0  0
  1  2  2  0
  2  3  1  0
  3  4  1  0
  4  5  1  0
  5  6  1  0
  4  7  1  0
  7  8  1  0
  8  9  2  0
  9 10  1  0
 10 11  1  0
 11 12  2  0
  2 13  1  0
 13 14  1  0
 14 15  2  0
 15 16  1  0
 16 17  2  0
 17 18  1  0
 18 19  2  0
 19 20  1  0
 20 21  1  0
 12  8  1  0
 21 13  2  0
 20 16  1  0
  3 22  1  0
  4 23  1  0
  5 24  1  0
  5 25  1  0
  6 26  1  0
  7 27  1  0
  7 28  1  0
  9 29  1  0
 10 30  1  0
 11 31  1  0
 14 32  1  0
 18 33  1  0
 19 34  1  0
 21 35  1  0
M  END
>  <Energy>  (1222) 
67.98864085967665

>  <compound_id>  (1222) 
62301

>  <target_id>  (1222) 
1

>  <reference_id>  (1222) 
107

>  <inspiration_ids>  (1222) 
[107, 35]

>  <energy_score>  (1222) 
15.498554649898722

>  <distance_score>  (1222) 
1.8346137958000075

>  <path>  (1222) 
/opt/xchem-fragalysis-2/maxwin/BulkDock/SCRATCH/511021/C62301-P107/C62301-P107.minimised.mol

>  <scratch_subdir>  (1222) 
/opt/xchem-fragalysis-2/maxwin/BulkDock/SCRATCH/511021/C62301-P107

>  <fragmenstein_runtime>  (1222) 
4.1041929721832275

>  <fragmenstein_outcome>  (1222) 
too moved

>  <fragmenstein_mode>  (1222) 
expansion

>  <fragmenstein_error>  (1222) 


$$$$
C62301-P35
     RDKit          3D

 35 37  0  0  0  0  0  0  0  0999 V2000
  -14.0363  -25.5996   27.5461 O   0  0  0  0  0  0  0  0  0  0  0  0
  -13.4717  -25.5581   28.5594 C   0  0  0  0  0  0  0  0  0  0  0  0
  -12.8949  -26.6862   29.4230 N   0  0  0  0  0  0  0  0  0  0  0  0
  -12.8065  -28.1052   29.1755 C   0  0  0  0  0  0  0  0  0  0  0  0
  -12.1834  -28.3702   27.7966 C   0  0  0  0  0  0  0  0  0  0  0  0
  -10.8807  -27.8121   27.6643 O   0  0  0  0  0  0  0  0  0  0  0  0
  -12.0168  -28.7394   30.3501 C   0  0  0  0  0  0  0  0  0  0  0  0
  -10.8820  -27.8992   30.8777 C   0  0  0  0  0  0  0  0  0  0  0  0
   -9.5429  -28.1574   31.0084 C   0  0  0  0  0  0  0  0  0  0  0  0
   -9.0149  -27.0898   31.6868 N   0  0  0  0  0  0  0  0  0  0  0  0
  -10.0098  -26.1775   31.8505 C   0  0  0  0  0  0  0  0  0  0  0  0
  -11.1440  -26.6313   31.3685 N   0  0  0  0  0  0  0  0  0  0  0  0
  -13.0629  -24.3198   29.2542 C   0  0  0  0  0  0  0  0  0  0  0  0
  -12.1719  -23.3083   28.6251 C   0  0  0  0  0  0  0  0  0  0  0  0
  -11.5893  -22.3228   29.2405 N   0  0  0  0  0  0  0  0  0  0  0  0
  -11.8116  -22.2458   30.5862 C   0  0  0  0  0  0  0  0  0  0  0  0
  -11.2379  -21.4668   31.4785 N   0  0  0  0  0  0  0  0  0  0  0  0
  -11.8471  -21.7380   32.6757 C   0  0  0  0  0  0  0  0  0  0  0  0
  -12.8157  -22.6926   32.5132 C   0  0  0  0  0  0  0  0  0  0  0  0
  -12.7175  -23.0878   31.2120 N   0  0  0  0  0  0  0  0  0  0  0  0
  -13.3356  -24.1257   30.5536 C   0  0  0  0  0  0  0  0  0  0  0  0
  -12.3852  -26.2830   30.2178 H   0  0  0  0  0  0  0  0  0  0  0  0
  -13.8273  -28.5037   29.1648 H   0  0  0  0  0  0  0  0  0  0  0  0
  -12.8035  -27.9377   27.0048 H   0  0  0  0  0  0  0  0  0  0  0  0
  -12.1231  -29.4447   27.6050 H   0  0  0  0  0  0  0  0  0  0  0  0
  -10.8427  -27.0332   28.2483 H   0  0  0  0  0  0  0  0  0  0  0  0
  -11.6864  -29.7464   30.1025 H   0  0  0  0  0  0  0  0  0  0  0  0
  -12.7149  -28.8584   31.1914 H   0  0  0  0  0  0  0  0  0  0  0  0
   -8.9282  -29.0027   30.7535 H   0  0  0  0  0  0  0  0  0  0  0  0
   -8.0475  -26.9956   31.9837 H   0  0  0  0  0  0  0  0  0  0  0  0
   -9.8533  -25.2195   32.3296 H   0  0  0  0  0  0  0  0  0  0  0  0
  -12.0073  -23.4290   27.5406 H   0  0  0  0  0  0  0  0  0  0  0  0
  -11.5815  -21.2001   33.5771 H   0  0  0  0  0  0  0  0  0  0  0  0
  -13.5466  -23.1129   33.1844 H   0  0  0  0  0  0  0  0  0  0  0  0
  -13.9582  -24.7815   31.1505 H   0  0  0  0  0  0  0  0  0  0  0  0
  1  2  2  0
  2  3  1  0
  3  4  1  0
  4  5  1  0
  5  6  1  0
  4  7  1  0
  7  8  1  0
  8  9  2  0
  9 10  1  0
 10 11  1  0
 11 12  2  0
  2 13  1  0
 13 14  1  0
 14 15  2  0
 15 16  1  0
 16 17  2  0
 17 18  1  0
 18 19  2  0
 19 20  1  0
 20 21  1  0
 12  8  1  0
 21 13  2  0
 20 16  1  0
  3 22  1  0
  4 23  1  0
  5 24  1  0
  5 25  1  0
  6 26  1  0
  7 27  1  0
  7 28  1  0
  9 29  1  0
 10 30  1  0
 11 31  1  0
 14 32  1  0
 18 33  1  0
 19 34  1  0
 21 35  1  0
M  END
>  <Energy>  (1223) 
37.271640406957353

>  <compound_id>  (1223) 
62301

>  <target_id>  (1223) 
1

>  <reference_id>  (1223) 
35

>  <inspiration_ids>  (1223) 
[107, 35]

>  <energy_score>  (1223) 
-15.218445802823965

>  <distance_score>  (1223) 
1.506175353345099

>  <path>  (1223) 
/opt/xchem-fragalysis-2/maxwin/BulkDock/SCRATCH/511021/C62301-P35/C62301-P35.minimised.mol

>  <scratch_subdir>  (1223) 
/opt/xchem-fragalysis-2/maxwin/BulkDock/SCRATCH/511021/C62301-P35

>  <fragmenstein_runtime>  (1223) 
5.273517608642578

>  <fragmenstein_outcome>  (1223) 
too moved

>  <fragmenstein_mode>  (1223) 
expansion

>  <fragmenstein_error>  (1223) 


$$$$
C62307-P35
     RDKit          3D

 33 33  0  0  0  0  0  0  0  0999 V2000
   -5.4920  -17.8654   31.7106 C   0  0  0  0  0  0  0  0  0  0  0  0
   -3.9137  -17.5129   30.9473 S   0  0  0  0  0  0  0  0  0  0  0  0
   -3.1419  -19.1644   31.1602 C   0  0  0  0  0  0  0  0  0  0  0  0
   -1.8335  -19.2890   30.3697 C   0  0  0  0  0  0  0  0  0  0  0  0
   -2.1241  -19.5245   28.8859 C   0  0  0  0  0  0  0  0  0  0  0  0
   -0.7522  -18.3082   30.6778 N   0  0  0  0  0  0  0  0  0  0  0  0
   -0.6402  -18.0845   32.1272 C   0  0  0  0  0  0  0  0  0  0  0  0
   -0.6615  -17.0238   29.9126 C   0  0  0  0  0  0  0  0  0  0  0  0
    0.8464  -16.5483   29.6869 C   0  0  0  0  0  0  0  0  0  0  0  0
    1.1701  -15.2439   29.0799 N   0  0  0  0  0  0  0  0  0  0  0  0
    0.3961  -14.4561   28.2730 C   0  0  0  0  0  0  0  0  0  0  0  0
    1.1290  -13.3115   28.0516 C   0  0  0  0  0  0  0  0  0  0  0  0
    2.3521  -13.3827   28.6692 N   0  0  0  0  0  0  0  0  0  0  0  0
    2.3742  -14.5754   29.2256 C   0  0  0  0  0  0  0  0  0  0  0  0
   -5.7536  -17.0969   32.4352 H   0  0  0  0  0  0  0  0  0  0  0  0
   -5.4926  -18.8583   32.1494 H   0  0  0  0  0  0  0  0  0  0  0  0
   -6.2269  -17.8565   30.9296 H   0  0  0  0  0  0  0  0  0  0  0  0
   -2.9069  -19.3457   32.2067 H   0  0  0  0  0  0  0  0  0  0  0  0
   -3.8075  -19.9825   30.8831 H   0  0  0  0  0  0  0  0  0  0  0  0
   -1.4032  -20.2471   30.7000 H   0  0  0  0  0  0  0  0  0  0  0  0
   -1.1900  -19.6408   28.3246 H   0  0  0  0  0  0  0  0  0  0  0  0
   -2.6898  -18.7055   28.4321 H   0  0  0  0  0  0  0  0  0  0  0  0
   -2.6912  -20.4507   28.7471 H   0  0  0  0  0  0  0  0  0  0  0  0
   -0.6222  -19.0351   32.6726 H   0  0  0  0  0  0  0  0  0  0  0  0
    0.3099  -17.5931   32.3622 H   0  0  0  0  0  0  0  0  0  0  0  0
   -1.4383  -17.4558   32.5321 H   0  0  0  0  0  0  0  0  0  0  0  0
   -1.2191  -16.2245   30.4139 H   0  0  0  0  0  0  0  0  0  0  0  0
   -1.0972  -17.1363   28.9150 H   0  0  0  0  0  0  0  0  0  0  0  0
    1.3543  -17.2890   29.0563 H   0  0  0  0  0  0  0  0  0  0  0  0
    1.3556  -16.5360   30.6579 H   0  0  0  0  0  0  0  0  0  0  0  0
   -0.5912  -14.7490   27.9463 H   0  0  0  0  0  0  0  0  0  0  0  0
    0.8230  -12.4498   27.4749 H   0  0  0  0  0  0  0  0  0  0  0  0
    3.2065  -15.0036   29.7703 H   0  0  0  0  0  0  0  0  0  0  0  0
  1  2  1  0
  2  3  1  0
  3  4  1  0
  4  5  1  0
  4  6  1  0
  6  7  1  0
  6  8  1  0
  8  9  1  0
  9 10  1  0
 10 11  1  0
 11 12  2  0
 12 13  1  0
 13 14  2  0
 14 10  1  0
  1 15  1  0
  1 16  1  0
  1 17  1  0
  3 18  1  0
  3 19  1  0
  4 20  1  0
  5 21  1  0
  5 22  1  0
  5 23  1  0
  7 24  1  0
  7 25  1  0
  7 26  1  0
  8 27  1  0
  8 28  1  0
  9 29  1  0
  9 30  1  0
 11 31  1  0
 12 32  1  0
 14 33  1  0
M  END
>  <Energy>  (1224) 
58.256802990240026

>  <compound_id>  (1224) 
62307

>  <target_id>  (1224) 
1

>  <reference_id>  (1224) 
35

>  <inspiration_ids>  (1224) 
[35, 93]

>  <energy_score>  (1224) 
-24.710494231399025

>  <distance_score>  (1224) 
15.617081921046303

>  <path>  (1224) 
/opt/xchem-fragalysis-2/maxwin/BulkDock/SCRATCH/511021/C62307-P35/C62307-P35.minimised.mol

>  <scratch_subdir>  (1224) 
/opt/xchem-fragalysis-2/maxwin/BulkDock/SCRATCH/511021/C62307-P35

>  <fragmenstein_runtime>  (1224) 
13.473930358886719

>  <fragmenstein_outcome>  (1224) 
too moved

>  <fragmenstein_mode>  (1224) 
expansion

>  <fragmenstein_error>  (1224) 


$$$$
C62307-P93
     RDKit          3D

 33 33  0  0  0  0  0  0  0  0999 V2000
   -3.0730  -20.9301   31.3335 C   0  0  0  0  0  0  0  0  0  0  0  0
   -2.5395  -19.8572   29.9897 S   0  0  0  0  0  0  0  0  0  0  0  0
   -3.0494  -18.2406   30.7021 C   0  0  0  0  0  0  0  0  0  0  0  0
   -3.0618  -17.1014   29.6401 C   0  0  0  0  0  0  0  0  0  0  0  0
   -4.2013  -17.2877   28.6275 C   0  0  0  0  0  0  0  0  0  0  0  0
   -3.2002  -15.7030   30.1340 N   0  0  0  0  0  0  0  0  0  0  0  0
   -3.9849  -15.6078   31.3736 C   0  0  0  0  0  0  0  0  0  0  0  0
   -1.9336  -14.8909   30.1857 C   0  0  0  0  0  0  0  0  0  0  0  0
   -1.2098  -14.5134   28.8090 C   0  0  0  0  0  0  0  0  0  0  0  0
   -0.2259  -13.3980   28.7756 N   0  0  0  0  0  0  0  0  0  0  0  0
   -0.5056  -12.0723   28.5114 C   0  0  0  0  0  0  0  0  0  0  0  0
    0.6996  -11.4073   28.5560 C   0  0  0  0  0  0  0  0  0  0  0  0
    1.7250  -12.2853   28.7591 N   0  0  0  0  0  0  0  0  0  0  0  0
    1.1505  -13.4743   28.8265 C   0  0  0  0  0  0  0  0  0  0  0  0
   -4.1133  -20.7213   31.5721 H   0  0  0  0  0  0  0  0  0  0  0  0
   -2.9663  -21.9767   31.0386 H   0  0  0  0  0  0  0  0  0  0  0  0
   -2.4424  -20.7458   32.2056 H   0  0  0  0  0  0  0  0  0  0  0  0
   -2.3176  -18.0023   31.4813 H   0  0  0  0  0  0  0  0  0  0  0  0
   -4.0309  -18.3399   31.1719 H   0  0  0  0  0  0  0  0  0  0  0  0
   -2.1265  -17.1621   29.0694 H   0  0  0  0  0  0  0  0  0  0  0  0
   -4.1988  -16.4720   27.8932 H   0  0  0  0  0  0  0  0  0  0  0  0
   -4.0752  -18.2059   28.0496 H   0  0  0  0  0  0  0  0  0  0  0  0
   -5.1808  -17.2821   29.1099 H   0  0  0  0  0  0  0  0  0  0  0  0
   -4.2437  -14.5622   31.5736 H   0  0  0  0  0  0  0  0  0  0  0  0
   -3.4266  -15.9872   32.2341 H   0  0  0  0  0  0  0  0  0  0  0  0
   -4.9322  -16.1489   31.2913 H   0  0  0  0  0  0  0  0  0  0  0  0
   -1.2051  -15.3873   30.8389 H   0  0  0  0  0  0  0  0  0  0  0  0
   -2.1739  -13.9318   30.6628 H   0  0  0  0  0  0  0  0  0  0  0  0
   -0.6847  -15.3924   28.4179 H   0  0  0  0  0  0  0  0  0  0  0  0
   -1.9776  -14.2366   28.0756 H   0  0  0  0  0  0  0  0  0  0  0  0
   -1.5193  -11.7255   28.3706 H   0  0  0  0  0  0  0  0  0  0  0  0
    0.8710  -10.3438   28.4728 H   0  0  0  0  0  0  0  0  0  0  0  0
    1.6721  -14.4168   28.9362 H   0  0  0  0  0  0  0  0  0  0  0  0
  1  2  1  0
  2  3  1  0
  3  4  1  0
  4  5  1  0
  4  6  1  0
  6  7  1  0
  6  8  1  0
  8  9  1  0
  9 10  1  0
 10 11  1  0
 11 12  2  0
 12 13  1  0
 13 14  2  0
 14 10  1  0
  1 15  1  0
  1 16  1  0
  1 17  1  0
  3 18  1  0
  3 19  1  0
  4 20  1  0
  5 21  1  0
  5 22  1  0
  5 23  1  0
  7 24  1  0
  7 25  1  0
  7 26  1  0
  8 27  1  0
  8 28  1  0
  9 29  1  0
  9 30  1  0
 11 31  1  0
 12 32  1  0
 14 33  1  0
M  END
>  <Energy>  (1225) 
52.177653319298244

>  <compound_id>  (1225) 
62307

>  <target_id>  (1225) 
1

>  <reference_id>  (1225) 
93

>  <inspiration_ids>  (1225) 
[35, 93]

>  <energy_score>  (1225) 
-30.789643902337843

>  <distance_score>  (1225) 
15.380154551694424

>  <path>  (1225) 
/opt/xchem-fragalysis-2/maxwin/BulkDock/SCRATCH/511021/C62307-P93/C62307-P93.minimised.mol

>  <scratch_subdir>  (1225) 
/opt/xchem-fragalysis-2/maxwin/BulkDock/SCRATCH/511021/C62307-P93

>  <fragmenstein_runtime>  (1225) 
12.879595756530762

>  <fragmenstein_outcome>  (1225) 
too moved

>  <fragmenstein_mode>  (1225) 
expansion

>  <fragmenstein_error>  (1225) 


$$$$
C62308-P35
     RDKit          3D

 36 36  0  0  0  0  0  0  0  0999 V2000
   -5.5140  -14.8727   28.0335 C   0  0  0  0  0  0  0  0  0  0  0  0
   -4.2446  -14.1606   27.8587 N   0  0  0  0  0  0  0  0  0  0  0  0
   -3.1848  -14.9772   27.2287 C   0  0  0  0  0  0  0  0  0  0  0  0
   -2.4255  -15.9229   28.2037 C   0  0  0  0  0  0  0  0  0  0  0  0
   -2.7530  -16.0400   29.7056 C   0  0  0  0  0  0  0  0  0  0  0  0
   -3.7389  -17.0745   30.1435 C   0  0  0  0  0  0  0  0  0  0  0  0
   -4.6249  -16.8847   31.1360 C   0  0  0  0  0  0  0  0  0  0  0  0
   -5.5020  -18.0048   31.5573 C   0  0  0  0  0  0  0  0  0  0  0  0
   -4.7890  -15.5643   31.8398 C   0  0  0  0  0  0  0  0  0  0  0  0
   -2.3487  -14.1604   25.9263 C   0  0  0  0  0  0  0  0  0  0  0  0
   -0.9171  -13.3153   25.5437 N   0  0  0  0  0  0  0  0  0  0  0  0
    0.7386  -13.3978   26.4084 C   0  0  0  0  0  0  0  0  0  0  0  0
    1.2822  -11.9185   26.1448 C   0  0  0  0  0  0  0  0  0  0  0  0
    0.8440  -11.6414   27.1721 N   0  0  0  0  0  0  0  0  0  0  0  0
    0.6164  -12.6389   26.2094 C   0  0  0  0  0  0  0  0  0  0  0  0
   -6.2070  -14.2178   28.5677 H   0  0  0  0  0  0  0  0  0  0  0  0
   -5.4149  -15.8038   28.5861 H   0  0  0  0  0  0  0  0  0  0  0  0
   -5.9638  -15.0928   27.0598 H   0  0  0  0  0  0  0  0  0  0  0  0
   -3.9294  -13.8001   28.7603 H   0  0  0  0  0  0  0  0  0  0  0  0
   -3.7521  -15.6863   26.6035 H   0  0  0  0  0  0  0  0  0  0  0  0
   -1.4168  -15.5428   28.2185 H   0  0  0  0  0  0  0  0  0  0  0  0
   -2.3752  -16.9277   27.7653 H   0  0  0  0  0  0  0  0  0  0  0  0
   -1.8118  -16.3382   30.1923 H   0  0  0  0  0  0  0  0  0  0  0  0
   -2.9638  -15.0481   30.1126 H   0  0  0  0  0  0  0  0  0  0  0  0
   -3.6524  -18.0464   29.6718 H   0  0  0  0  0  0  0  0  0  0  0  0
   -6.0950  -17.7460   32.4350 H   0  0  0  0  0  0  0  0  0  0  0  0
   -6.1909  -18.1782   30.7503 H   0  0  0  0  0  0  0  0  0  0  0  0
   -4.9409  -18.9253   31.7374 H   0  0  0  0  0  0  0  0  0  0  0  0
   -3.8888  -15.3174   32.4111 H   0  0  0  0  0  0  0  0  0  0  0  0
   -4.9892  -14.7607   31.1236 H   0  0  0  0  0  0  0  0  0  0  0  0
   -5.6309  -15.5696   32.5362 H   0  0  0  0  0  0  0  0  0  0  0  0
   -3.0484  -13.3691   25.6103 H   0  0  0  0  0  0  0  0  0  0  0  0
   -2.3513  -14.8973   25.1175 H   0  0  0  0  0  0  0  0  0  0  0  0
    1.2557  -14.3588   26.6274 H   0  0  0  0  0  0  0  0  0  0  0  0
    1.7551  -11.5636   25.1836 H   0  0  0  0  0  0  0  0  0  0  0  0
    1.5010  -13.1270   25.0218 H   0  0  0  0  0  0  0  0  0  0  0  0
  1  2  1  0
  2  3  1  0
  3  4  1  0
  4  5  1  0
  5  6  1  0
  6  7  2  3
  7  8  1  0
  7  9  1  0
  3 10  1  0
 10 11  1  0
 11 12  1  0
 12 13  2  0
 13 14  1  0
 14 15  2  0
 15 11  1  0
  1 16  1  0
  1 17  1  0
  1 18  1  0
  2 19  1  0
  3 20  1  0
  4 21  1  0
  4 22  1  0
  5 23  1  0
  5 24  1  0
  6 25  1  0
  8 26  1  0
  8 27  1  0
  8 28  1  0
  9 29  1  0
  9 30  1  0
  9 31  1  0
 10 32  1  0
 10 33  1  0
 12 34  1  0
 13 35  1  0
 15 36  1  0
M  END
>  <Energy>  (1226) 
861.19951940022349

>  <compound_id>  (1226) 
62308

>  <target_id>  (1226) 
1

>  <reference_id>  (1226) 
35

>  <inspiration_ids>  (1226) 
[35, 93]

>  <energy_score>  (1226) 
801.3837836542453

>  <distance_score>  (1226) 
14.71081009564251

>  <path>  (1226) 
/opt/xchem-fragalysis-2/maxwin/BulkDock/SCRATCH/511021/C62308-P35/C62308-P35.minimised.mol

>  <scratch_subdir>  (1226) 
/opt/xchem-fragalysis-2/maxwin/BulkDock/SCRATCH/511021/C62308-P35

>  <fragmenstein_runtime>  (1226) 
10.905044794082642

>  <fragmenstein_outcome>  (1226) 
too moved

>  <fragmenstein_mode>  (1226) 
expansion

>  <fragmenstein_error>  (1226) 


$$$$
C62308-P93
     RDKit          3D

 36 36  0  0  0  0  0  0  0  0999 V2000
   -4.7721  -16.2251   28.7139 C   0  0  0  0  0  0  0  0  0  0  0  0
   -5.1467  -16.9424   27.5102 N   0  0  0  0  0  0  0  0  0  0  0  0
   -6.0928  -16.3031   26.5821 C   0  0  0  0  0  0  0  0  0  0  0  0
   -7.5077  -16.9831   26.6748 C   0  0  0  0  0  0  0  0  0  0  0  0
   -7.7568  -18.4621   26.2332 C   0  0  0  0  0  0  0  0  0  0  0  0
   -6.7360  -19.1024   25.3400 C   0  0  0  0  0  0  0  0  0  0  0  0
   -6.1090  -20.2979   25.3836 C   0  0  0  0  0  0  0  0  0  0  0  0
   -6.2643  -21.3959   26.3916 C   0  0  0  0  0  0  0  0  0  0  0  0
   -5.1018  -20.6388   24.3074 C   0  0  0  0  0  0  0  0  0  0  0  0
   -6.2316  -14.7252   26.6346 C   0  0  0  0  0  0  0  0  0  0  0  0
   -5.1801  -13.8313   26.1390 N   0  0  0  0  0  0  0  0  0  0  0  0
   -5.3552  -12.4710   25.9658 C   0  0  0  0  0  0  0  0  0  0  0  0
   -4.1529  -11.9781   25.5399 C   0  0  0  0  0  0  0  0  0  0  0  0
   -3.2564  -13.0037   25.4493 N   0  0  0  0  0  0  0  0  0  0  0  0
   -3.8938  -14.1029   25.7934 C   0  0  0  0  0  0  0  0  0  0  0  0
   -4.2300  -16.8989   29.3852 H   0  0  0  0  0  0  0  0  0  0  0  0
   -4.0904  -15.4026   28.4781 H   0  0  0  0  0  0  0  0  0  0  0  0
   -5.6171  -15.8199   29.2599 H   0  0  0  0  0  0  0  0  0  0  0  0
   -5.5535  -17.8462   27.7914 H   0  0  0  0  0  0  0  0  0  0  0  0
   -5.7137  -16.5216   25.5764 H   0  0  0  0  0  0  0  0  0  0  0  0
   -7.8609  -16.8770   27.6960 H   0  0  0  0  0  0  0  0  0  0  0  0
   -8.1989  -16.3752   26.0742 H   0  0  0  0  0  0  0  0  0  0  0  0
   -8.6757  -18.4313   25.6329 H   0  0  0  0  0  0  0  0  0  0  0  0
   -8.0346  -19.0921   27.0778 H   0  0  0  0  0  0  0  0  0  0  0  0
   -6.4878  -18.4626   24.4909 H   0  0  0  0  0  0  0  0  0  0  0  0
   -5.3522  -21.4812   26.9873 H   0  0  0  0  0  0  0  0  0  0  0  0
   -6.3878  -22.3588   25.8894 H   0  0  0  0  0  0  0  0  0  0  0  0
   -7.1252  -21.2424   27.0338 H   0  0  0  0  0  0  0  0  0  0  0  0
   -4.1241  -20.8432   24.7567 H   0  0  0  0  0  0  0  0  0  0  0  0
   -5.4244  -21.5271   23.7542 H   0  0  0  0  0  0  0  0  0  0  0  0
   -4.9676  -19.8286   23.5829 H   0  0  0  0  0  0  0  0  0  0  0  0
   -6.4516  -14.3959   27.6567 H   0  0  0  0  0  0  0  0  0  0  0  0
   -7.1073  -14.4528   26.0295 H   0  0  0  0  0  0  0  0  0  0  0  0
   -6.3033  -11.9894   26.1590 H   0  0  0  0  0  0  0  0  0  0  0  0
   -3.8999  -10.9566   25.2934 H   0  0  0  0  0  0  0  0  0  0  0  0
   -3.4698  -15.0979   25.8299 H   0  0  0  0  0  0  0  0  0  0  0  0
  1  2  1  0
  2  3  1  0
  3  4  1  0
  4  5  1  0
  5  6  1  0
  6  7  2  3
  7  8  1  0
  7  9  1  0
  3 10  1  0
 10 11  1  0
 11 12  1  0
 12 13  2  0
 13 14  1  0
 14 15  2  0
 15 11  1  0
  1 16  1  0
  1 17  1  0
  1 18  1  0
  2 19  1  0
  3 20  1  0
  4 21  1  0
  4 22  1  0
  5 23  1  0
  5 24  1  0
  6 25  1  0
  8 26  1  0
  8 27  1  0
  8 28  1  0
  9 29  1  0
  9 30  1  0
  9 31  1  0
 10 32  1  0
 10 33  1  0
 12 34  1  0
 13 35  1  0
 15 36  1  0
M  END
>  <Energy>  (1227) 
48.312540498884339

>  <compound_id>  (1227) 
62308

>  <target_id>  (1227) 
1

>  <reference_id>  (1227) 
93

>  <inspiration_ids>  (1227) 
[35, 93]

>  <energy_score>  (1227) 
-11.50319524709414

>  <distance_score>  (1227) 
16.22608920571975

>  <path>  (1227) 
/opt/xchem-fragalysis-2/maxwin/BulkDock/SCRATCH/511021/C62308-P93/C62308-P93.minimised.mol

>  <scratch_subdir>  (1227) 
/opt/xchem-fragalysis-2/maxwin/BulkDock/SCRATCH/511021/C62308-P93

>  <fragmenstein_runtime>  (1227) 
13.17060661315918

>  <fragmenstein_outcome>  (1227) 
too moved

>  <fragmenstein_mode>  (1227) 
expansion

>  <fragmenstein_error>  (1227) 


$$$$
C62310-P35
     RDKit          3D

 32 32  0  0  0  0  0  0  0  0999 V2000
   -8.4302  -21.7091   26.4288 C   0  0  0  0  0  0  0  0  0  0  0  0
   -7.8222  -20.3415   26.1473 C   0  0  0  0  0  0  0  0  0  0  0  0
   -6.3085  -20.4496   25.9217 C   0  0  0  0  0  0  0  0  0  0  0  0
   -5.6351  -19.0802   25.6485 C   0  0  0  0  0  0  0  0  0  0  0  0
   -4.1479  -19.1365   25.5165 N   0  0  0  0  0  0  0  0  0  0  0  0
   -3.5207  -19.4343   26.8010 C   0  0  0  0  0  0  0  0  0  0  0  0
   -3.5976  -17.8639   24.9211 C   0  0  0  0  0  0  0  0  0  0  0  0
   -2.0254  -17.7806   24.6957 C   0  0  0  0  0  0  0  0  0  0  0  0
   -1.4270  -16.7849   23.7817 N   0  0  0  0  0  0  0  0  0  0  0  0
   -0.4199  -17.0500   22.8745 C   0  0  0  0  0  0  0  0  0  0  0  0
   -0.1007  -15.8454   22.2963 C   0  0  0  0  0  0  0  0  0  0  0  0
   -0.8742  -14.8419   22.8201 N   0  0  0  0  0  0  0  0  0  0  0  0
   -1.6069  -15.4247   23.7503 C   0  0  0  0  0  0  0  0  0  0  0  0
   -7.8929  -22.2291   27.2234 H   0  0  0  0  0  0  0  0  0  0  0  0
   -9.4815  -21.6253   26.7145 H   0  0  0  0  0  0  0  0  0  0  0  0
   -8.3792  -22.3355   25.5319 H   0  0  0  0  0  0  0  0  0  0  0  0
   -8.0488  -19.6530   26.9632 H   0  0  0  0  0  0  0  0  0  0  0  0
   -8.2887  -19.9221   25.2483 H   0  0  0  0  0  0  0  0  0  0  0  0
   -6.1288  -21.0953   25.0514 H   0  0  0  0  0  0  0  0  0  0  0  0
   -5.8491  -20.9677   26.7643 H   0  0  0  0  0  0  0  0  0  0  0  0
   -6.0410  -18.7293   24.6900 H   0  0  0  0  0  0  0  0  0  0  0  0
   -5.9218  -18.3210   26.3809 H   0  0  0  0  0  0  0  0  0  0  0  0
   -3.8222  -20.4159   27.1722 H   0  0  0  0  0  0  0  0  0  0  0  0
   -3.7263  -18.6593   27.5455 H   0  0  0  0  0  0  0  0  0  0  0  0
   -2.4332  -19.5083   26.6931 H   0  0  0  0  0  0  0  0  0  0  0  0
   -3.9003  -17.0050   25.5338 H   0  0  0  0  0  0  0  0  0  0  0  0
   -4.0629  -17.7323   23.9362 H   0  0  0  0  0  0  0  0  0  0  0  0
   -1.6915  -18.7562   24.3197 H   0  0  0  0  0  0  0  0  0  0  0  0
   -1.5301  -17.6114   25.6596 H   0  0  0  0  0  0  0  0  0  0  0  0
   -0.0305  -18.0468   22.7249 H   0  0  0  0  0  0  0  0  0  0  0  0
    0.6460  -15.6717   21.5353 H   0  0  0  0  0  0  0  0  0  0  0  0
   -2.2892  -14.9173   24.4191 H   0  0  0  0  0  0  0  0  0  0  0  0
  1  2  1  0
  2  3  1  0
  3  4  1  0
  4  5  1  0
  5  6  1  0
  5  7  1  0
  7  8  1  0
  8  9  1  0
  9 10  1  0
 10 11  2  0
 11 12  1  0
 12 13  2  0
 13  9  1  0
  1 14  1  0
  1 15  1  0
  1 16  1  0
  2 17  1  0
  2 18  1  0
  3 19  1  0
  3 20  1  0
  4 21  1  0
  4 22  1  0
  6 23  1  0
  6 24  1  0
  6 25  1  0
  7 26  1  0
  7 27  1  0
  8 28  1  0
  8 29  1  0
 10 30  1  0
 11 31  1  0
 13 32  1  0
M  END
>  <Energy>  (1228) 
25.450185240017152

>  <compound_id>  (1228) 
62310

>  <target_id>  (1228) 
1

>  <reference_id>  (1228) 
35

>  <inspiration_ids>  (1228) 
[35, 93]

>  <energy_score>  (1228) 
-23.134740195813663

>  <distance_score>  (1228) 
15.761183095886034

>  <path>  (1228) 
/opt/xchem-fragalysis-2/maxwin/BulkDock/SCRATCH/511021/C62310-P35/C62310-P35.minimised.mol

>  <scratch_subdir>  (1228) 
/opt/xchem-fragalysis-2/maxwin/BulkDock/SCRATCH/511021/C62310-P35

>  <fragmenstein_runtime>  (1228) 
10.220160722732544

>  <fragmenstein_outcome>  (1228) 
too moved

>  <fragmenstein_mode>  (1228) 
expansion

>  <fragmenstein_error>  (1228) 


$$$$
C62310-P93
     RDKit          3D

 32 32  0  0  0  0  0  0  0  0999 V2000
   -5.6165  -17.8654   31.6378 C   0  0  0  0  0  0  0  0  0  0  0  0
   -4.7398  -16.6385   31.5322 C   0  0  0  0  0  0  0  0  0  0  0  0
   -3.2882  -17.0058   31.2730 C   0  0  0  0  0  0  0  0  0  0  0  0
   -3.0914  -17.7503   29.9547 C   0  0  0  0  0  0  0  0  0  0  0  0
   -1.9355  -18.6584   30.0323 N   0  0  0  0  0  0  0  0  0  0  0  0
   -2.2980  -19.9867   30.5340 C   0  0  0  0  0  0  0  0  0  0  0  0
   -1.1784  -18.6897   28.7589 C   0  0  0  0  0  0  0  0  0  0  0  0
    0.3066  -19.1423   28.8862 C   0  0  0  0  0  0  0  0  0  0  0  0
    1.3060  -18.3241   28.1867 N   0  0  0  0  0  0  0  0  0  0  0  0
    1.8908  -17.1995   28.7019 C   0  0  0  0  0  0  0  0  0  0  0  0
    2.9395  -16.9366   27.8651 C   0  0  0  0  0  0  0  0  0  0  0  0
    3.0133  -17.8382   26.8385 N   0  0  0  0  0  0  0  0  0  0  0  0
    2.0029  -18.6519   27.0495 C   0  0  0  0  0  0  0  0  0  0  0  0
   -6.4183  -17.7015   32.3607 H   0  0  0  0  0  0  0  0  0  0  0  0
   -6.0556  -18.0656   30.6725 H   0  0  0  0  0  0  0  0  0  0  0  0
   -5.0752  -18.7793   31.8841 H   0  0  0  0  0  0  0  0  0  0  0  0
   -4.7988  -16.0455   32.4477 H   0  0  0  0  0  0  0  0  0  0  0  0
   -5.0977  -15.9858   30.7280 H   0  0  0  0  0  0  0  0  0  0  0  0
   -2.8686  -17.5725   32.1042 H   0  0  0  0  0  0  0  0  0  0  0  0
   -2.6941  -16.0824   31.2433 H   0  0  0  0  0  0  0  0  0  0  0  0
   -3.9846  -18.2620   29.6254 H   0  0  0  0  0  0  0  0  0  0  0  0
   -2.9275  -16.9736   29.1955 H   0  0  0  0  0  0  0  0  0  0  0  0
   -2.8055  -20.5935   29.7804 H   0  0  0  0  0  0  0  0  0  0  0  0
   -2.9292  -19.9252   31.4259 H   0  0  0  0  0  0  0  0  0  0  0  0
   -1.3928  -20.5275   30.8311 H   0  0  0  0  0  0  0  0  0  0  0  0
   -1.6951  -19.3137   28.0185 H   0  0  0  0  0  0  0  0  0  0  0  0
   -1.1553  -17.6776   28.3345 H   0  0  0  0  0  0  0  0  0  0  0  0
    0.6176  -19.1415   29.9389 H   0  0  0  0  0  0  0  0  0  0  0  0
    0.4152  -20.1716   28.5245 H   0  0  0  0  0  0  0  0  0  0  0  0
    1.5262  -16.7180   29.5974 H   0  0  0  0  0  0  0  0  0  0  0  0
    3.6021  -16.0983   27.9215 H   0  0  0  0  0  0  0  0  0  0  0  0
    1.7496  -19.5095   26.4404 H   0  0  0  0  0  0  0  0  0  0  0  0
  1  2  1  0
  2  3  1  0
  3  4  1  0
  4  5  1  0
  5  6  1  0
  5  7  1  0
  7  8  1  0
  8  9  1  0
  9 10  1  0
 10 11  2  0
 11 12  1  0
 12 13  2  0
 13  9  1  0
  1 14  1  0
  1 15  1  0
  1 16  1  0
  2 17  1  0
  2 18  1  0
  3 19  1  0
  3 20  1  0
  4 21  1  0
  4 22  1  0
  6 23  1  0
  6 24  1  0
  6 25  1  0
  7 26  1  0
  7 27  1  0
  8 28  1  0
  8 29  1  0
 10 30  1  0
 11 31  1  0
 13 32  1  0
M  END
>  <Energy>  (1229) 
31.650209866594945

>  <compound_id>  (1229) 
62310

>  <target_id>  (1229) 
1

>  <reference_id>  (1229) 
93

>  <inspiration_ids>  (1229) 
[35, 93]

>  <energy_score>  (1229) 
-16.934715569232367

>  <distance_score>  (1229) 
15.970433523578656

>  <path>  (1229) 
/opt/xchem-fragalysis-2/maxwin/BulkDock/SCRATCH/511021/C62310-P93/C62310-P93.minimised.mol

>  <scratch_subdir>  (1229) 
/opt/xchem-fragalysis-2/maxwin/BulkDock/SCRATCH/511021/C62310-P93

>  <fragmenstein_runtime>  (1229) 
12.334453821182251

>  <fragmenstein_outcome>  (1229) 
too moved

>  <fragmenstein_mode>  (1229) 
expansion

>  <fragmenstein_error>  (1229) 


$$$$
C62340-P35
     RDKit          3D

 32 32  0  0  0  0  0  0  0  0999 V2000
   -4.3803  -16.4080   31.5581 C   0  0  0  0  0  0  0  0  0  0  0  0
   -4.0627  -17.2964   30.3529 C   0  0  0  0  0  0  0  0  0  0  0  0
   -4.5232  -16.6204   29.0617 C   0  0  0  0  0  0  0  0  0  0  0  0
   -2.6448  -17.7316   30.1840 N   0  0  0  0  0  0  0  0  0  0  0  0
   -2.2296  -18.7145   31.2257 C   0  0  0  0  0  0  0  0  0  0  0  0
   -3.0321  -20.0071   31.4703 C   0  0  0  0  0  0  0  0  0  0  0  0
   -2.5338  -21.4466   30.2601 Br  0  0  0  0  0  0  0  0  0  0  0  0
   -1.6572  -16.5714   30.1231 C   0  0  0  0  0  0  0  0  0  0  0  0
   -0.8902  -16.3193   28.7523 C   0  0  0  0  0  0  0  0  0  0  0  0
    0.0902  -15.2025   28.6670 N   0  0  0  0  0  0  0  0  0  0  0  0
    1.4349  -15.2522   28.9649 C   0  0  0  0  0  0  0  0  0  0  0  0
    1.9525  -14.0208   28.6214 C   0  0  0  0  0  0  0  0  0  0  0  0
    0.9769  -13.2197   28.0920 N   0  0  0  0  0  0  0  0  0  0  0  0
   -0.1076  -13.9691   28.0790 C   0  0  0  0  0  0  0  0  0  0  0  0
   -4.3320  -15.3432   31.3054 H   0  0  0  0  0  0  0  0  0  0  0  0
   -3.6744  -16.5694   32.3713 H   0  0  0  0  0  0  0  0  0  0  0  0
   -5.3829  -16.6199   31.9380 H   0  0  0  0  0  0  0  0  0  0  0  0
   -4.6820  -18.1811   30.4711 H   0  0  0  0  0  0  0  0  0  0  0  0
   -4.3455  -17.2642   28.1932 H   0  0  0  0  0  0  0  0  0  0  0  0
   -3.9944  -15.6775   28.8830 H   0  0  0  0  0  0  0  0  0  0  0  0
   -5.5845  -16.3809   29.0846 H   0  0  0  0  0  0  0  0  0  0  0  0
   -1.1964  -19.0081   30.9946 H   0  0  0  0  0  0  0  0  0  0  0  0
   -2.1678  -18.1855   32.1840 H   0  0  0  0  0  0  0  0  0  0  0  0
   -2.7377  -20.4008   32.4457 H   0  0  0  0  0  0  0  0  0  0  0  0
   -4.1148  -19.8946   31.4645 H   0  0  0  0  0  0  0  0  0  0  0  0
   -0.8842  -16.7061   30.8918 H   0  0  0  0  0  0  0  0  0  0  0  0
   -2.1494  -15.6307   30.3961 H   0  0  0  0  0  0  0  0  0  0  0  0
   -0.3295  -17.2231   28.4843 H   0  0  0  0  0  0  0  0  0  0  0  0
   -1.6219  -16.1367   27.9567 H   0  0  0  0  0  0  0  0  0  0  0  0
    1.8985  -16.1349   29.3815 H   0  0  0  0  0  0  0  0  0  0  0  0
    2.9762  -13.6894   28.7267 H   0  0  0  0  0  0  0  0  0  0  0  0
   -1.0646  -13.6775   27.6685 H   0  0  0  0  0  0  0  0  0  0  0  0
  1  2  1  0
  2  3  1  0
  2  4  1  0
  4  5  1  0
  5  6  1  0
  6  7  1  0
  4  8  1  0
  8  9  1  0
  9 10  1  0
 10 11  1  0
 11 12  2  0
 12 13  1  0
 13 14  2  0
 14 10  1  0
  1 15  1  0
  1 16  1  0
  1 17  1  0
  2 18  1  0
  3 19  1  0
  3 20  1  0
  3 21  1  0
  5 22  1  0
  5 23  1  0
  6 24  1  0
  6 25  1  0
  8 26  1  0
  8 27  1  0
  9 28  1  0
  9 29  1  0
 11 30  1  0
 12 31  1  0
 14 32  1  0
M  END
>  <Energy>  (1230) 
49.707899057793234

>  <compound_id>  (1230) 
62340

>  <target_id>  (1230) 
1

>  <reference_id>  (1230) 
35

>  <inspiration_ids>  (1230) 
[35, 93]

>  <energy_score>  (1230) 
-15.696860348502298

>  <distance_score>  (1230) 
15.34871194179546

>  <path>  (1230) 
/opt/xchem-fragalysis-2/maxwin/BulkDock/SCRATCH/511021/C62340-P35/C62340-P35.minimised.mol

>  <scratch_subdir>  (1230) 
/opt/xchem-fragalysis-2/maxwin/BulkDock/SCRATCH/511021/C62340-P35

>  <fragmenstein_runtime>  (1230) 
9.30821967124939

>  <fragmenstein_outcome>  (1230) 
too moved

>  <fragmenstein_mode>  (1230) 
expansion

>  <fragmenstein_error>  (1230) 


$$$$
C62340-P93
     RDKit          3D

 32 32  0  0  0  0  0  0  0  0999 V2000
   -4.4233  -16.7981   29.1587 C   0  0  0  0  0  0  0  0  0  0  0  0
   -4.0536  -17.2373   30.5687 C   0  0  0  0  0  0  0  0  0  0  0  0
   -4.3974  -16.1388   31.5758 C   0  0  0  0  0  0  0  0  0  0  0  0
   -2.6349  -17.6291   30.6825 N   0  0  0  0  0  0  0  0  0  0  0  0
   -2.3452  -19.0230   30.3191 C   0  0  0  0  0  0  0  0  0  0  0  0
   -2.9654  -20.0578   31.2797 C   0  0  0  0  0  0  0  0  0  0  0  0
   -2.5410  -21.8780   30.7070 Br  0  0  0  0  0  0  0  0  0  0  0  0
   -1.5818  -16.6029   30.3736 C   0  0  0  0  0  0  0  0  0  0  0  0
   -0.9206  -16.3739   28.9440 C   0  0  0  0  0  0  0  0  0  0  0  0
    0.0863  -15.2804   28.7934 N   0  0  0  0  0  0  0  0  0  0  0  0
    1.4394  -15.3478   29.0488 C   0  0  0  0  0  0  0  0  0  0  0  0
    1.9693  -14.1342   28.6595 C   0  0  0  0  0  0  0  0  0  0  0  0
    0.9916  -13.3271   28.1440 N   0  0  0  0  0  0  0  0  0  0  0  0
   -0.1079  -14.0532   28.1895 C   0  0  0  0  0  0  0  0  0  0  0  0
   -4.1645  -17.5588   28.4160 H   0  0  0  0  0  0  0  0  0  0  0  0
   -5.4861  -16.5859   29.0640 H   0  0  0  0  0  0  0  0  0  0  0  0
   -3.9028  -15.8763   28.8767 H   0  0  0  0  0  0  0  0  0  0  0  0
   -4.6899  -18.0842   30.8377 H   0  0  0  0  0  0  0  0  0  0  0  0
   -3.7534  -16.1959   32.4548 H   0  0  0  0  0  0  0  0  0  0  0  0
   -5.4262  -16.2360   31.9241 H   0  0  0  0  0  0  0  0  0  0  0  0
   -4.2712  -15.1365   31.1523 H   0  0  0  0  0  0  0  0  0  0  0  0
   -2.6317  -19.2136   29.2794 H   0  0  0  0  0  0  0  0  0  0  0  0
   -1.2574  -19.1713   30.3512 H   0  0  0  0  0  0  0  0  0  0  0  0
   -4.0519  -20.0133   31.3476 H   0  0  0  0  0  0  0  0  0  0  0  0
   -2.5343  -19.9599   32.2796 H   0  0  0  0  0  0  0  0  0  0  0  0
   -1.9357  -15.6233   30.7179 H   0  0  0  0  0  0  0  0  0  0  0  0
   -0.7470  -16.8291   31.0515 H   0  0  0  0  0  0  0  0  0  0  0  0
   -0.4053  -17.2895   28.6305 H   0  0  0  0  0  0  0  0  0  0  0  0
   -1.6992  -16.1613   28.2043 H   0  0  0  0  0  0  0  0  0  0  0  0
    1.9006  -16.2284   29.4722 H   0  0  0  0  0  0  0  0  0  0  0  0
    3.0023  -13.8198   28.7184 H   0  0  0  0  0  0  0  0  0  0  0  0
   -1.0740  -13.7472   27.8116 H   0  0  0  0  0  0  0  0  0  0  0  0
  1  2  1  0
  2  3  1  0
  2  4  1  0
  4  5  1  0
  5  6  1  0
  6  7  1  0
  4  8  1  0
  8  9  1  0
  9 10  1  0
 10 11  1  0
 11 12  2  0
 12 13  1  0
 13 14  2  0
 14 10  1  0
  1 15  1  0
  1 16  1  0
  1 17  1  0
  2 18  1  0
  3 19  1  0
  3 20  1  0
  3 21  1  0
  5 22  1  0
  5 23  1  0
  6 24  1  0
  6 25  1  0
  8 26  1  0
  8 27  1  0
  9 28  1  0
  9 29  1  0
 11 30  1  0
 12 31  1  0
 14 32  1  0
M  END
>  <Energy>  (1231) 
47.303486972308633

>  <compound_id>  (1231) 
62340

>  <target_id>  (1231) 
1

>  <reference_id>  (1231) 
93

>  <inspiration_ids>  (1231) 
[35, 93]

>  <energy_score>  (1231) 
-18.101272433986935

>  <distance_score>  (1231) 
15.502006470203284

>  <path>  (1231) 
/opt/xchem-fragalysis-2/maxwin/BulkDock/SCRATCH/511021/C62340-P93/C62340-P93.minimised.mol

>  <scratch_subdir>  (1231) 
/opt/xchem-fragalysis-2/maxwin/BulkDock/SCRATCH/511021/C62340-P93

>  <fragmenstein_runtime>  (1231) 
11.278133869171143

>  <fragmenstein_outcome>  (1231) 
too moved

>  <fragmenstein_mode>  (1231) 
expansion

>  <fragmenstein_error>  (1231) 


$$$$
C62346-P35
     RDKit          3D

 28 28  0  0  0  0  0  0  0  0999 V2000
   -4.5038  -18.0498   31.5174 C   0  0  0  0  0  0  0  0  0  0  0  0
   -4.8812  -16.9469   31.7959 C   0  0  0  0  0  0  0  0  0  0  0  0
   -5.0839  -15.6125   32.3705 C   0  0  0  0  0  0  0  0  0  0  0  0
   -4.9718  -14.4692   31.2664 C   0  0  0  0  0  0  0  0  0  0  0  0
   -3.9786  -14.5831   30.1680 N   0  0  0  0  0  0  0  0  0  0  0  0
   -2.7861  -15.2604   30.1477 C   0  0  0  0  0  0  0  0  0  0  0  0
   -2.4574  -15.3769   28.8147 C   0  0  0  0  0  0  0  0  0  0  0  0
   -3.2901  -14.6247   28.0347 N   0  0  0  0  0  0  0  0  0  0  0  0
   -4.1673  -14.1222   28.8794 C   0  0  0  0  0  0  0  0  0  0  0  0
   -6.1255  -15.5605   33.4604 N   0  0  0  0  0  0  0  0  0  0  0  0
   -7.1824  -16.5928   33.5585 C   0  0  0  0  0  0  0  0  0  0  0  0
   -7.5558  -17.0713   34.9684 C   0  0  0  0  0  0  0  0  0  0  0  0
   -8.5564  -18.2316   34.9191 C   0  0  0  0  0  0  0  0  0  0  0  0
   -4.1033  -19.0317   31.4113 H   0  0  0  0  0  0  0  0  0  0  0  0
   -4.1655  -15.4346   32.9515 H   0  0  0  0  0  0  0  0  0  0  0  0
   -4.7405  -13.5171   31.7602 H   0  0  0  0  0  0  0  0  0  0  0  0
   -5.9407  -14.3486   30.7751 H   0  0  0  0  0  0  0  0  0  0  0  0
   -2.3471  -15.6952   31.0342 H   0  0  0  0  0  0  0  0  0  0  0  0
   -1.6581  -15.9638   28.3933 H   0  0  0  0  0  0  0  0  0  0  0  0
   -4.9950  -13.4773   28.6153 H   0  0  0  0  0  0  0  0  0  0  0  0
   -6.5177  -14.6278   33.5522 H   0  0  0  0  0  0  0  0  0  0  0  0
   -8.1030  -16.1417   33.1758 H   0  0  0  0  0  0  0  0  0  0  0  0
   -6.9485  -17.4745   32.9634 H   0  0  0  0  0  0  0  0  0  0  0  0
   -6.6683  -17.3881   35.5209 H   0  0  0  0  0  0  0  0  0  0  0  0
   -7.9944  -16.2405   35.5342 H   0  0  0  0  0  0  0  0  0  0  0  0
   -8.7680  -18.5859   35.9328 H   0  0  0  0  0  0  0  0  0  0  0  0
   -8.1632  -19.0710   34.3403 H   0  0  0  0  0  0  0  0  0  0  0  0
   -9.5013  -17.9106   34.4715 H   0  0  0  0  0  0  0  0  0  0  0  0
  1  2  3  0
  2  3  1  0
  3  4  1  0
  4  5  1  0
  5  6  1  0
  6  7  2  0
  7  8  1  0
  8  9  2  0
  3 10  1  0
 10 11  1  0
 11 12  1  0
 12 13  1  0
  9  5  1  0
  1 14  1  0
  3 15  1  0
  4 16  1  0
  4 17  1  0
  6 18  1  0
  7 19  1  0
  9 20  1  0
 10 21  1  0
 11 22  1  0
 11 23  1  0
 12 24  1  0
 12 25  1  0
 13 26  1  0
 13 27  1  0
 13 28  1  0
M  END
>  <Energy>  (1232) 
36.9905506821231

>  <compound_id>  (1232) 
62346

>  <target_id>  (1232) 
1

>  <reference_id>  (1232) 
35

>  <inspiration_ids>  (1232) 
[35, 93]

>  <energy_score>  (1232) 
15.75982007833045

>  <distance_score>  (1232) 
16.788259938983792

>  <path>  (1232) 
/opt/xchem-fragalysis-2/maxwin/BulkDock/SCRATCH/511021/C62346-P35/C62346-P35.minimised.mol

>  <scratch_subdir>  (1232) 
/opt/xchem-fragalysis-2/maxwin/BulkDock/SCRATCH/511021/C62346-P35

>  <fragmenstein_runtime>  (1232) 
7.730079174041748

>  <fragmenstein_outcome>  (1232) 
too moved

>  <fragmenstein_mode>  (1232) 
expansion

>  <fragmenstein_error>  (1232) 


$$$$
C62346-P93
     RDKit          3D

 28 28  0  0  0  0  0  0  0  0999 V2000
   -8.0229  -13.0403   30.4642 C   0  0  0  0  0  0  0  0  0  0  0  0
   -6.9134  -13.0942   30.0031 C   0  0  0  0  0  0  0  0  0  0  0  0
   -5.5366  -13.2988   29.4689 C   0  0  0  0  0  0  0  0  0  0  0  0
   -4.5284  -12.0750   29.7944 C   0  0  0  0  0  0  0  0  0  0  0  0
   -3.9932  -11.1029   28.7935 N   0  0  0  0  0  0  0  0  0  0  0  0
   -3.0585  -10.1118   29.0915 C   0  0  0  0  0  0  0  0  0  0  0  0
   -2.7525   -9.4796   27.9075 C   0  0  0  0  0  0  0  0  0  0  0  0
   -3.4692  -10.0385   26.8822 N   0  0  0  0  0  0  0  0  0  0  0  0
   -4.2303  -10.9639   27.4464 C   0  0  0  0  0  0  0  0  0  0  0  0
   -5.1193  -14.6660   29.9146 N   0  0  0  0  0  0  0  0  0  0  0  0
   -5.0337  -14.8768   31.3685 C   0  0  0  0  0  0  0  0  0  0  0  0
   -6.0848  -15.8194   31.9705 C   0  0  0  0  0  0  0  0  0  0  0  0
   -5.9691  -17.2477   31.4844 C   0  0  0  0  0  0  0  0  0  0  0  0
   -9.0042  -12.9898   30.8782 H   0  0  0  0  0  0  0  0  0  0  0  0
   -5.6076  -13.3574   28.3767 H   0  0  0  0  0  0  0  0  0  0  0  0
   -3.6188  -12.5138   30.2231 H   0  0  0  0  0  0  0  0  0  0  0  0
   -4.9745  -11.4430   30.5736 H   0  0  0  0  0  0  0  0  0  0  0  0
   -2.6950   -9.9728   30.1002 H   0  0  0  0  0  0  0  0  0  0  0  0
   -2.0592   -8.6650   27.7440 H   0  0  0  0  0  0  0  0  0  0  0  0
   -4.9460  -11.5797   26.9183 H   0  0  0  0  0  0  0  0  0  0  0  0
   -5.7726  -15.3407   29.5170 H   0  0  0  0  0  0  0  0  0  0  0  0
   -4.0402  -15.2941   31.5732 H   0  0  0  0  0  0  0  0  0  0  0  0
   -5.0647  -13.9226   31.9084 H   0  0  0  0  0  0  0  0  0  0  0  0
   -7.0916  -15.4399   31.7905 H   0  0  0  0  0  0  0  0  0  0  0  0
   -5.9513  -15.8102   33.0590 H   0  0  0  0  0  0  0  0  0  0  0  0
   -6.3680  -17.3570   30.4742 H   0  0  0  0  0  0  0  0  0  0  0  0
   -4.9292  -17.5882   31.4864 H   0  0  0  0  0  0  0  0  0  0  0  0
   -6.5272  -17.8780   32.1708 H   0  0  0  0  0  0  0  0  0  0  0  0
  1  2  3  0
  2  3  1  0
  3  4  1  0
  4  5  1  0
  5  6  1  0
  6  7  2  0
  7  8  1  0
  8  9  2  0
  3 10  1  0
 10 11  1  0
 11 12  1  0
 12 13  1  0
  9  5  1  0
  1 14  1  0
  3 15  1  0
  4 16  1  0
  4 17  1  0
  6 18  1  0
  7 19  1  0
  9 20  1  0
 10 21  1  0
 11 22  1  0
 11 23  1  0
 12 24  1  0
 12 25  1  0
 13 26  1  0
 13 27  1  0
 13 28  1  0
M  END
>  <Energy>  (1233) 
27.985707661739113

>  <compound_id>  (1233) 
62346

>  <target_id>  (1233) 
1

>  <reference_id>  (1233) 
93

>  <inspiration_ids>  (1233) 
[35, 93]

>  <energy_score>  (1233) 
6.754977057945201

>  <distance_score>  (1233) 
16.209453326266814

>  <path>  (1233) 
/opt/xchem-fragalysis-2/maxwin/BulkDock/SCRATCH/511021/C62346-P93/C62346-P93.minimised.mol

>  <scratch_subdir>  (1233) 
/opt/xchem-fragalysis-2/maxwin/BulkDock/SCRATCH/511021/C62346-P93

>  <fragmenstein_runtime>  (1233) 
7.271944046020508

>  <fragmenstein_outcome>  (1233) 
too moved

>  <fragmenstein_mode>  (1233) 
expansion

>  <fragmenstein_error>  (1233) 


$$$$
C62347-P35
     RDKit          3D

 30 30  0  0  0  0  0  0  0  0999 V2000
   -1.5933  -15.8188   28.5071 C   0  0  0  0  0  0  0  0  0  0  0  0
   -2.3753  -14.6332   28.1196 N   0  0  0  0  0  0  0  0  0  0  0  0
   -3.2121  -14.1972   29.2830 C   0  0  0  0  0  0  0  0  0  0  0  0
   -4.1773  -15.1117   30.0216 C   0  0  0  0  0  0  0  0  0  0  0  0
   -4.7053  -16.2931   29.6860 C   0  0  0  0  0  0  0  0  0  0  0  0
   -5.7505  -17.2773   30.8533 Br  0  0  0  0  0  0  0  0  0  0  0  0
   -1.4379  -13.4554   27.6800 C   0  0  0  0  0  0  0  0  0  0  0  0
   -0.3468  -13.6527   26.4942 C   0  0  0  0  0  0  0  0  0  0  0  0
    1.0526  -12.5745   26.0206 C   0  0  0  0  0  0  0  0  0  0  0  0
    1.6159  -11.8181   24.3509 N   0  0  0  0  0  0  0  0  0  0  0  0
    0.4509  -11.1864   22.9713 C   0  0  0  0  0  0  0  0  0  0  0  0
   -0.1665  -12.3207   22.6941 C   0  0  0  0  0  0  0  0  0  0  0  0
    1.5539  -11.8092   22.6025 N   0  0  0  0  0  0  0  0  0  0  0  0
    2.4884  -12.2332   23.4919 C   0  0  0  0  0  0  0  0  0  0  0  0
   -0.9039  -15.5984   29.3298 H   0  0  0  0  0  0  0  0  0  0  0  0
   -2.2220  -16.6626   28.7979 H   0  0  0  0  0  0  0  0  0  0  0  0
   -1.0091  -16.1810   27.6580 H   0  0  0  0  0  0  0  0  0  0  0  0
   -3.8076  -13.3372   28.9496 H   0  0  0  0  0  0  0  0  0  0  0  0
   -2.5281  -13.8115   30.0526 H   0  0  0  0  0  0  0  0  0  0  0  0
   -4.4443  -14.7154   31.0025 H   0  0  0  0  0  0  0  0  0  0  0  0
   -4.5222  -16.7790   28.7358 H   0  0  0  0  0  0  0  0  0  0  0  0
   -0.8833  -13.1159   28.5641 H   0  0  0  0  0  0  0  0  0  0  0  0
   -2.0913  -12.6338   27.3638 H   0  0  0  0  0  0  0  0  0  0  0  0
   -0.8610  -14.0378   25.6095 H   0  0  0  0  0  0  0  0  0  0  0  0
    0.2525  -14.4348   26.9689 H   0  0  0  0  0  0  0  0  0  0  0  0
    1.0835  -11.7221   26.6968 H   0  0  0  0  0  0  0  0  0  0  0  0
    1.7967  -13.3484   26.0358 H   0  0  0  0  0  0  0  0  0  0  0  0
   -0.0201  -10.1751   22.8901 H   0  0  0  0  0  0  0  0  0  0  0  0
   -1.1230  -12.1539   22.1088 H   0  0  0  0  0  0  0  0  0  0  0  0
    3.2423  -12.9793   23.4662 H   0  0  0  0  0  0  0  0  0  0  0  0
  1  2  1  0
  2  3  1  0
  3  4  1  0
  4  5  2  3
  5  6  1  0
  2  7  1  0
  7  8  1  0
  8  9  1  0
  9 10  1  0
 10 11  1  0
 11 12  2  0
 12 13  1  0
 13 14  2  0
 14 10  1  0
  1 15  1  0
  1 16  1  0
  1 17  1  0
  3 18  1  0
  3 19  1  0
  4 20  1  0
  5 21  1  0
  7 22  1  0
  7 23  1  0
  8 24  1  0
  8 25  1  0
  9 26  1  0
  9 27  1  0
 11 28  1  0
 12 29  1  0
 14 30  1  0
M  END
>  <Energy>  (1234) 
475.91337398196026

>  <compound_id>  (1234) 
62347

>  <target_id>  (1234) 
1

>  <reference_id>  (1234) 
35

>  <inspiration_ids>  (1234) 
[35, 93]

>  <energy_score>  (1234) 
429.7488451932942

>  <distance_score>  (1234) 
14.975941018638043

>  <path>  (1234) 
/opt/xchem-fragalysis-2/maxwin/BulkDock/SCRATCH/511021/C62347-P35/C62347-P35.minimised.mol

>  <scratch_subdir>  (1234) 
/opt/xchem-fragalysis-2/maxwin/BulkDock/SCRATCH/511021/C62347-P35

>  <fragmenstein_runtime>  (1234) 
12.276131629943848

>  <fragmenstein_outcome>  (1234) 
too moved

>  <fragmenstein_mode>  (1234) 
expansion

>  <fragmenstein_error>  (1234) 


$$$$
C62347-P93
     RDKit          3D

 30 30  0  0  0  0  0  0  0  0999 V2000
   -7.3653  -18.1238   27.5159 C   0  0  0  0  0  0  0  0  0  0  0  0
   -6.0291  -17.5172   27.4560 N   0  0  0  0  0  0  0  0  0  0  0  0
   -5.6878  -16.8915   28.7606 C   0  0  0  0  0  0  0  0  0  0  0  0
   -5.5416  -17.8605   29.8903 C   0  0  0  0  0  0  0  0  0  0  0  0
   -5.7703  -17.6438   31.1896 C   0  0  0  0  0  0  0  0  0  0  0  0
   -6.2934  -16.0755   32.0103 Br  0  0  0  0  0  0  0  0  0  0  0  0
   -6.0140  -16.4938   26.3751 C   0  0  0  0  0  0  0  0  0  0  0  0
   -4.6212  -16.1314   25.7484 C   0  0  0  0  0  0  0  0  0  0  0  0
   -4.7205  -14.8654   24.8090 C   0  0  0  0  0  0  0  0  0  0  0  0
   -3.6617  -14.4598   23.8683 N   0  0  0  0  0  0  0  0  0  0  0  0
   -3.8990  -13.7879   22.6806 C   0  0  0  0  0  0  0  0  0  0  0  0
   -2.6759  -13.5830   22.0929 C   0  0  0  0  0  0  0  0  0  0  0  0
   -1.6929  -14.0512   22.9112 N   0  0  0  0  0  0  0  0  0  0  0  0
   -2.3039  -14.5334   23.9803 C   0  0  0  0  0  0  0  0  0  0  0  0
   -7.4158  -18.8717   28.2954 H   0  0  0  0  0  0  0  0  0  0  0  0
   -8.1524  -17.3812   27.6818 H   0  0  0  0  0  0  0  0  0  0  0  0
   -7.5855  -18.6483   26.5791 H   0  0  0  0  0  0  0  0  0  0  0  0
   -4.7104  -16.4054   28.6519 H   0  0  0  0  0  0  0  0  0  0  0  0
   -6.4079  -16.1016   29.0002 H   0  0  0  0  0  0  0  0  0  0  0  0
   -5.1600  -18.8407   29.6187 H   0  0  0  0  0  0  0  0  0  0  0  0
   -5.6121  -18.4515   31.8923 H   0  0  0  0  0  0  0  0  0  0  0  0
   -6.6185  -16.8580   25.5327 H   0  0  0  0  0  0  0  0  0  0  0  0
   -6.5072  -15.5751   26.7205 H   0  0  0  0  0  0  0  0  0  0  0  0
   -4.2471  -16.9856   25.1724 H   0  0  0  0  0  0  0  0  0  0  0  0
   -3.8870  -15.9198   26.5331 H   0  0  0  0  0  0  0  0  0  0  0  0
   -4.8909  -13.9817   25.4372 H   0  0  0  0  0  0  0  0  0  0  0  0
   -5.6156  -14.9934   24.1859 H   0  0  0  0  0  0  0  0  0  0  0  0
   -4.9013  -13.5503   22.3528 H   0  0  0  0  0  0  0  0  0  0  0  0
   -2.4632  -13.1162   21.1407 H   0  0  0  0  0  0  0  0  0  0  0  0
   -1.8147  -14.9469   24.8504 H   0  0  0  0  0  0  0  0  0  0  0  0
  1  2  1  0
  2  3  1  0
  3  4  1  0
  4  5  2  3
  5  6  1  0
  2  7  1  0
  7  8  1  0
  8  9  1  0
  9 10  1  0
 10 11  1  0
 11 12  2  0
 12 13  1  0
 13 14  2  0
 14 10  1  0
  1 15  1  0
  1 16  1  0
  1 17  1  0
  3 18  1  0
  3 19  1  0
  4 20  1  0
  5 21  1  0
  7 22  1  0
  7 23  1  0
  8 24  1  0
  8 25  1  0
  9 26  1  0
  9 27  1  0
 11 28  1  0
 12 29  1  0
 14 30  1  0
M  END
>  <Energy>  (1235) 
6.8303499116609796

>  <compound_id>  (1235) 
62347

>  <target_id>  (1235) 
1

>  <reference_id>  (1235) 
93

>  <inspiration_ids>  (1235) 
[35, 93]

>  <energy_score>  (1235) 
-39.3341788770021

>  <distance_score>  (1235) 
15.689571345484696

>  <path>  (1235) 
/opt/xchem-fragalysis-2/maxwin/BulkDock/SCRATCH/511021/C62347-P93/C62347-P93.minimised.mol

>  <scratch_subdir>  (1235) 
/opt/xchem-fragalysis-2/maxwin/BulkDock/SCRATCH/511021/C62347-P93

>  <fragmenstein_runtime>  (1235) 
12.611223220825195

>  <fragmenstein_outcome>  (1235) 
too moved

>  <fragmenstein_mode>  (1235) 
expansion

>  <fragmenstein_error>  (1235) 


$$$$
C62352-P35
     RDKit          3D

 30 30  0  0  0  0  0  0  0  0999 V2000
   -3.8049  -11.7269   19.4431 C   0  0  0  0  0  0  0  0  0  0  0  0
   -3.0826  -10.1142   19.9294 S   0  0  0  0  0  0  0  0  0  0  0  0
   -2.1633   -9.6351   18.3371 C   0  0  0  0  0  0  0  0  0  0  0  0
   -1.1719   -8.3052   18.3632 C   0  0  0  0  0  0  0  0  0  0  0  0
    0.0935   -7.8407   17.3911 C   0  0  0  0  0  0  0  0  0  0  0  0
    0.9217   -6.5357   17.8042 C   0  0  0  0  0  0  0  0  0  0  0  0
    1.8955   -6.0039   16.7921 N   0  0  0  0  0  0  0  0  0  0  0  0
    2.7927   -4.9949   17.3952 C   0  0  0  0  0  0  0  0  0  0  0  0
    3.1959   -3.9528   16.4142 C   0  0  0  0  0  0  0  0  0  0  0  0
    3.1599   -2.5741   16.4699 C   0  0  0  0  0  0  0  0  0  0  0  0
    3.7168   -2.0173   15.3484 N   0  0  0  0  0  0  0  0  0  0  0  0
    4.0637   -3.0357   14.5957 C   0  0  0  0  0  0  0  0  0  0  0  0
    3.7581   -4.2261   15.1949 N   0  0  0  0  0  0  0  0  0  0  0  0
   -3.0693  -12.5204   19.5866 H   0  0  0  0  0  0  0  0  0  0  0  0
   -4.7028  -11.9207   20.0306 H   0  0  0  0  0  0  0  0  0  0  0  0
   -4.0989  -11.6940   18.3905 H   0  0  0  0  0  0  0  0  0  0  0  0
   -1.6660  -10.5603   18.0824 H   0  0  0  0  0  0  0  0  0  0  0  0
   -2.9241   -9.4506   17.5708 H   0  0  0  0  0  0  0  0  0  0  0  0
   -1.8821   -7.4848   18.2191 H   0  0  0  0  0  0  0  0  0  0  0  0
   -0.7452   -8.3069   19.3666 H   0  0  0  0  0  0  0  0  0  0  0  0
    0.8356   -8.6376   17.3776 H   0  0  0  0  0  0  0  0  0  0  0  0
   -0.3048   -7.7149   16.3782 H   0  0  0  0  0  0  0  0  0  0  0  0
    0.2028   -5.7395   18.0223 H   0  0  0  0  0  0  0  0  0  0  0  0
    1.4579   -6.7754   18.7276 H   0  0  0  0  0  0  0  0  0  0  0  0
    1.3314   -5.5423   16.0772 H   0  0  0  0  0  0  0  0  0  0  0  0
    2.2969   -4.4942   18.2367 H   0  0  0  0  0  0  0  0  0  0  0  0
    3.6793   -5.5017   17.7911 H   0  0  0  0  0  0  0  0  0  0  0  0
    2.7820   -1.9546   17.2730 H   0  0  0  0  0  0  0  0  0  0  0  0
    4.5275   -2.9707   13.6200 H   0  0  0  0  0  0  0  0  0  0  0  0
    3.8914   -5.1523   14.8128 H   0  0  0  0  0  0  0  0  0  0  0  0
  1  2  1  0
  2  3  1  0
  3  4  1  0
  4  5  1  0
  5  6  1  0
  6  7  1  0
  7  8  1  0
  8  9  1  0
  9 10  2  0
 10 11  1  0
 11 12  2  0
 12 13  1  0
 13  9  1  0
  1 14  1  0
  1 15  1  0
  1 16  1  0
  3 17  1  0
  3 18  1  0
  4 19  1  0
  4 20  1  0
  5 21  1  0
  5 22  1  0
  6 23  1  0
  6 24  1  0
  7 25  1  0
  8 26  1  0
  8 27  1  0
 10 28  1  0
 12 29  1  0
 13 30  1  0
M  END
>  <Energy>  (1236) 
17.76296702109352

>  <compound_id>  (1236) 
62352

>  <target_id>  (1236) 
1

>  <reference_id>  (1236) 
35

>  <inspiration_ids>  (1236) 
[35, 93]

>  <energy_score>  (1236) 
7.024100989637077

>  <distance_score>  (1236) 
15.585002919658022

>  <path>  (1236) 
/opt/xchem-fragalysis-2/maxwin/BulkDock/SCRATCH/511021/C62352-P35/C62352-P35.minimised.mol

>  <scratch_subdir>  (1236) 
/opt/xchem-fragalysis-2/maxwin/BulkDock/SCRATCH/511021/C62352-P35

>  <fragmenstein_runtime>  (1236) 
10.566209077835083

>  <fragmenstein_outcome>  (1236) 
too moved

>  <fragmenstein_mode>  (1236) 
expansion

>  <fragmenstein_error>  (1236) 


$$$$
C62352-P93
     RDKit          3D

 30 30  0  0  0  0  0  0  0  0999 V2000
   -1.6553  -14.9955   24.4376 C   0  0  0  0  0  0  0  0  0  0  0  0
   -0.1572  -13.8922   23.0359 S   0  0  0  0  0  0  0  0  0  0  0  0
   -0.0414  -11.4671   22.4960 C   0  0  0  0  0  0  0  0  0  0  0  0
   -0.5352  -10.0665   21.4020 C   0  0  0  0  0  0  0  0  0  0  0  0
    0.1674   -8.7008   20.6797 C   0  0  0  0  0  0  0  0  0  0  0  0
    0.9477   -8.1130   19.1372 C   0  0  0  0  0  0  0  0  0  0  0  0
    0.9172   -7.1044   17.9562 N   0  0  0  0  0  0  0  0  0  0  0  0
    2.3523   -6.7512   17.6180 C   0  0  0  0  0  0  0  0  0  0  0  0
    2.6642   -5.6571   16.6631 C   0  0  0  0  0  0  0  0  0  0  0  0
    3.3948   -5.6469   15.4912 C   0  0  0  0  0  0  0  0  0  0  0  0
    3.6863   -4.3651   15.0988 N   0  0  0  0  0  0  0  0  0  0  0  0
    3.1363   -3.5942   16.0056 C   0  0  0  0  0  0  0  0  0  0  0  0
    2.5003   -4.3271   16.9662 N   0  0  0  0  0  0  0  0  0  0  0  0
   -2.7341  -15.1501   24.1090 H   0  0  0  0  0  0  0  0  0  0  0  0
   -1.8584  -14.3872   25.3342 H   0  0  0  0  0  0  0  0  0  0  0  0
   -1.5083  -16.0367   24.4158 H   0  0  0  0  0  0  0  0  0  0  0  0
    0.9962  -11.4787   22.3502 H   0  0  0  0  0  0  0  0  0  0  0  0
   -0.9700  -11.6757   21.8997 H   0  0  0  0  0  0  0  0  0  0  0  0
   -1.2750  -10.4471   20.6684 H   0  0  0  0  0  0  0  0  0  0  0  0
   -1.1923   -9.5360   22.1114 H   0  0  0  0  0  0  0  0  0  0  0  0
   -0.8328   -8.3574   20.4082 H   0  0  0  0  0  0  0  0  0  0  0  0
    0.5888   -8.1320   21.5154 H   0  0  0  0  0  0  0  0  0  0  0  0
    1.7167   -8.8377   18.8698 H   0  0  0  0  0  0  0  0  0  0  0  0
    1.3118   -7.2438   19.6843 H   0  0  0  0  0  0  0  0  0  0  0  0
    0.5243   -7.5994   17.1563 H   0  0  0  0  0  0  0  0  0  0  0  0
    2.8700   -7.6629   17.2967 H   0  0  0  0  0  0  0  0  0  0  0  0
    2.8102   -6.3821   18.5373 H   0  0  0  0  0  0  0  0  0  0  0  0
    3.7727   -6.4990   14.9404 H   0  0  0  0  0  0  0  0  0  0  0  0
    3.1611   -2.5132   16.0190 H   0  0  0  0  0  0  0  0  0  0  0  0
    2.0203   -3.9659   17.7794 H   0  0  0  0  0  0  0  0  0  0  0  0
  1  2  1  0
  2  3  1  0
  3  4  1  0
  4  5  1  0
  5  6  1  0
  6  7  1  0
  7  8  1  0
  8  9  1  0
  9 10  2  0
 10 11  1  0
 11 12  2  0
 12 13  1  0
 13  9  1  0
  1 14  1  0
  1 15  1  0
  1 16  1  0
  3 17  1  0
  3 18  1  0
  4 19  1  0
  4 20  1  0
  5 21  1  0
  5 22  1  0
  6 23  1  0
  6 24  1  0
  7 25  1  0
  8 26  1  0
  8 27  1  0
 10 28  1  0
 12 29  1  0
 13 30  1  0
M  END
>  <Energy>  (1237) 
367.70502363477618

>  <compound_id>  (1237) 
62352

>  <target_id>  (1237) 
1

>  <reference_id>  (1237) 
93

>  <inspiration_ids>  (1237) 
[35, 93]

>  <energy_score>  (1237) 
356.9661576033232

>  <distance_score>  (1237) 
14.555050322270015

>  <path>  (1237) 
/opt/xchem-fragalysis-2/maxwin/BulkDock/SCRATCH/511021/C62352-P93/C62352-P93.minimised.mol

>  <scratch_subdir>  (1237) 
/opt/xchem-fragalysis-2/maxwin/BulkDock/SCRATCH/511021/C62352-P93

>  <fragmenstein_runtime>  (1237) 
8.853559970855713

>  <fragmenstein_outcome>  (1237) 
too moved

>  <fragmenstein_mode>  (1237) 
expansion

>  <fragmenstein_error>  (1237) 


$$$$
C62356-P35
     RDKit          3D

 46 48  0  0  0  0  0  0  0  0999 V2000
    6.4406   -8.2349   31.2055 C   0  0  0  0  0  0  0  0  0  0  0  0
    5.2495   -8.4277   30.2764 C   0  0  0  0  0  0  0  0  0  0  0  0
    5.1814   -9.8175   29.6150 C   0  0  0  0  0  0  0  0  0  0  0  0
    6.4323  -10.0805   28.6690 C   0  0  0  0  0  0  0  0  0  0  0  0
    6.7360   -9.1482   27.5302 N   0  0  0  0  0  0  0  0  0  0  0  0
    7.8440   -9.1378   26.5662 C   0  0  0  0  0  0  0  0  0  0  0  0
    8.7415   -9.9189   26.3990 O   0  0  0  0  0  0  0  0  0  0  0  0
    7.8798   -7.9886   25.5136 C   0  0  0  0  0  0  0  0  0  0  0  0
    6.7681   -7.2082   25.1434 C   0  0  0  0  0  0  0  0  0  0  0  0
    6.8314   -6.2298   24.1321 C   0  0  0  0  0  0  0  0  0  0  0  0
    8.0126   -5.9736   23.4311 C   0  0  0  0  0  0  0  0  0  0  0  0
    9.1531   -6.7310   23.7364 C   0  0  0  0  0  0  0  0  0  0  0  0
   10.4798   -6.7353   23.2124 C   0  0  0  0  0  0  0  0  0  0  0  0
   11.1693   -7.7266   23.8652 C   0  0  0  0  0  0  0  0  0  0  0  0
   10.3141   -8.3121   24.7650 N   0  0  0  0  0  0  0  0  0  0  0  0
    9.0644   -7.7130   24.7395 C   0  0  0  0  0  0  0  0  0  0  0  0
    4.9049  -10.8679   30.6742 N   0  0  0  0  0  0  0  0  0  0  0  0
    3.7107  -11.0971   31.5256 C   0  0  0  0  0  0  0  0  0  0  0  0
    2.6388  -10.5549   31.5285 O   0  0  0  0  0  0  0  0  0  0  0  0
    3.9659  -12.2345   32.6273 C   0  0  0  0  0  0  0  0  0  0  0  0
    2.7849  -13.1861   32.9957 C   0  0  0  0  0  0  0  0  0  0  0  0
    1.4337  -13.0026   33.2697 C   0  0  0  0  0  0  0  0  0  0  0  0
    0.7933  -14.1921   33.5704 N   0  0  0  0  0  0  0  0  0  0  0  0
    1.7268  -15.1085   33.5132 C   0  0  0  0  0  0  0  0  0  0  0  0
    2.9399  -14.5552   33.1924 N   0  0  0  0  0  0  0  0  0  0  0  0
    7.3874   -8.2829   30.6600 H   0  0  0  0  0  0  0  0  0  0  0  0
    6.4575   -8.9896   31.9976 H   0  0  0  0  0  0  0  0  0  0  0  0
    6.3854   -7.2508   31.6823 H   0  0  0  0  0  0  0  0  0  0  0  0
    4.3315   -8.2544   30.8515 H   0  0  0  0  0  0  0  0  0  0  0  0
    5.2773   -7.6527   29.5016 H   0  0  0  0  0  0  0  0  0  0  0  0
    4.2849   -9.8206   28.9827 H   0  0  0  0  0  0  0  0  0  0  0  0
    7.3481  -10.1472   29.2667 H   0  0  0  0  0  0  0  0  0  0  0  0
    6.3127  -11.0681   28.2082 H   0  0  0  0  0  0  0  0  0  0  0  0
    6.2129   -8.2875   27.4420 H   0  0  0  0  0  0  0  0  0  0  0  0
    5.8042   -7.3692   25.6177 H   0  0  0  0  0  0  0  0  0  0  0  0
    5.9361   -5.6610   23.8856 H   0  0  0  0  0  0  0  0  0  0  0  0
    8.0422   -5.2129   22.6575 H   0  0  0  0  0  0  0  0  0  0  0  0
   10.8749   -6.0902   22.4374 H   0  0  0  0  0  0  0  0  0  0  0  0
   12.1896   -8.0734   23.7706 H   0  0  0  0  0  0  0  0  0  0  0  0
   10.5311   -9.0940   25.3733 H   0  0  0  0  0  0  0  0  0  0  0  0
    5.6651  -11.4522   31.0035 H   0  0  0  0  0  0  0  0  0  0  0  0
    4.2595  -11.7076   33.5438 H   0  0  0  0  0  0  0  0  0  0  0  0
    4.8205  -12.8489   32.3213 H   0  0  0  0  0  0  0  0  0  0  0  0
    0.8836  -12.0688   33.2442 H   0  0  0  0  0  0  0  0  0  0  0  0
    1.5965  -16.1670   33.6932 H   0  0  0  0  0  0  0  0  0  0  0  0
    3.8065  -15.0673   33.1101 H   0  0  0  0  0  0  0  0  0  0  0  0
  1  2  1  0
  2  3  1  0
  3  4  1  0
  4  5  1  0
  5  6  1  0
  6  7  2  0
  6  8  1  0
  8  9  2  0
  9 10  1  0
 10 11  2  0
 11 12  1  0
 12 13  1  0
 13 14  2  0
 14 15  1  0
 15 16  1  0
  3 17  1  0
 17 18  1  0
 18 19  2  0
 18 20  1  0
 20 21  1  0
 21 22  2  0
 22 23  1  0
 23 24  2  0
 24 25  1  0
 16  8  1  0
 25 21  1  0
 16 12  2  0
  1 26  1  0
  1 27  1  0
  1 28  1  0
  2 29  1  0
  2 30  1  0
  3 31  1  0
  4 32  1  0
  4 33  1  0
  5 34  1  0
  9 35  1  0
 10 36  1  0
 11 37  1  0
 13 38  1  0
 14 39  1  0
 15 40  1  0
 17 41  1  0
 20 42  1  0
 20 43  1  0
 22 44  1  0
 24 45  1  0
 25 46  1  0
M  END
>  <Energy>  (1238) 
65.628766869281321

>  <compound_id>  (1238) 
62356

>  <target_id>  (1238) 
1

>  <reference_id>  (1238) 
35

>  <inspiration_ids>  (1238) 
[35, 93]

>  <energy_score>  (1238) 
-4.799355167866906

>  <distance_score>  (1238) 
15.066460497762446

>  <path>  (1238) 
/opt/xchem-fragalysis-2/maxwin/BulkDock/SCRATCH/511021/C62356-P35/C62356-P35.minimised.mol

>  <scratch_subdir>  (1238) 
/opt/xchem-fragalysis-2/maxwin/BulkDock/SCRATCH/511021/C62356-P35

>  <fragmenstein_runtime>  (1238) 
35.6218318939209

>  <fragmenstein_outcome>  (1238) 
too moved

>  <fragmenstein_mode>  (1238) 
expansion

>  <fragmenstein_error>  (1238) 


$$$$
C62356-P93
     RDKit          3D

 46 48  0  0  0  0  0  0  0  0999 V2000
   -2.2661   -7.9485   22.2833 C   0  0  0  0  0  0  0  0  0  0  0  0
   -1.7640   -8.5640   20.9899 C   0  0  0  0  0  0  0  0  0  0  0  0
   -0.3916   -9.2375   21.0377 C   0  0  0  0  0  0  0  0  0  0  0  0
    0.7964   -8.3225   21.4794 C   0  0  0  0  0  0  0  0  0  0  0  0
    1.6354   -7.2639   20.9573 N   0  0  0  0  0  0  0  0  0  0  0  0
    2.8409   -7.3170   20.1560 C   0  0  0  0  0  0  0  0  0  0  0  0
    3.4047   -8.2465   19.6502 O   0  0  0  0  0  0  0  0  0  0  0  0
    3.5688   -6.0093   20.0190 C   0  0  0  0  0  0  0  0  0  0  0  0
    2.9538   -4.7600   19.9208 C   0  0  0  0  0  0  0  0  0  0  0  0
    3.6545   -3.6006   20.2553 C   0  0  0  0  0  0  0  0  0  0  0  0
    4.9737   -3.6628   20.7250 C   0  0  0  0  0  0  0  0  0  0  0  0
    5.6686   -4.8883   20.7143 C   0  0  0  0  0  0  0  0  0  0  0  0
    6.9888   -5.2997   21.0741 C   0  0  0  0  0  0  0  0  0  0  0  0
    7.0769   -6.6542   20.8552 C   0  0  0  0  0  0  0  0  0  0  0  0
    5.8527   -7.0820   20.4097 N   0  0  0  0  0  0  0  0  0  0  0  0
    4.9650   -6.0243   20.3213 C   0  0  0  0  0  0  0  0  0  0  0  0
   -0.3527  -10.5697   21.8282 N   0  0  0  0  0  0  0  0  0  0  0  0
   -1.1898  -11.9071   21.6560 C   0  0  0  0  0  0  0  0  0  0  0  0
   -2.1178  -12.1235   20.8962 O   0  0  0  0  0  0  0  0  0  0  0  0
   -0.4084  -13.6023   22.8711 C   0  0  0  0  0  0  0  0  0  0  0  0
   -1.4575  -15.0000   23.8727 C   0  0  0  0  0  0  0  0  0  0  0  0
   -2.9429  -15.3286   23.7160 C   0  0  0  0  0  0  0  0  0  0  0  0
   -3.6828  -15.6872   24.6730 N   0  0  0  0  0  0  0  0  0  0  0  0
   -2.6800  -16.0532   25.2999 C   0  0  0  0  0  0  0  0  0  0  0  0
   -2.0278  -14.8338   25.1797 N   0  0  0  0  0  0  0  0  0  0  0  0
   -1.5373   -7.2642   22.7250 H   0  0  0  0  0  0  0  0  0  0  0  0
   -3.1792   -7.3755   22.0884 H   0  0  0  0  0  0  0  0  0  0  0  0
   -2.5251   -8.7159   23.0141 H   0  0  0  0  0  0  0  0  0  0  0  0
   -2.5112   -9.2843   20.6356 H   0  0  0  0  0  0  0  0  0  0  0  0
   -1.7217   -7.7671   20.2366 H   0  0  0  0  0  0  0  0  0  0  0  0
   -0.1798   -9.5600   20.0098 H   0  0  0  0  0  0  0  0  0  0  0  0
    1.5950   -9.0512   21.4459 H   0  0  0  0  0  0  0  0  0  0  0  0
    0.6088   -8.0106   22.5113 H   0  0  0  0  0  0  0  0  0  0  0  0
    1.4072   -6.2980   21.1468 H   0  0  0  0  0  0  0  0  0  0  0  0
    1.9038   -4.6870   19.6497 H   0  0  0  0  0  0  0  0  0  0  0  0
    3.1515   -2.6368   20.2130 H   0  0  0  0  0  0  0  0  0  0  0  0
    5.4669   -2.7518   21.0507 H   0  0  0  0  0  0  0  0  0  0  0  0
    7.7805   -4.6719   21.4599 H   0  0  0  0  0  0  0  0  0  0  0  0
    7.8849   -7.3568   21.0102 H   0  0  0  0  0  0  0  0  0  0  0  0
    5.5809   -8.0379   20.2004 H   0  0  0  0  0  0  0  0  0  0  0  0
    0.4104  -10.7367   22.4837 H   0  0  0  0  0  0  0  0  0  0  0  0
   -0.2370  -14.3925   22.1748 H   0  0  0  0  0  0  0  0  0  0  0  0
    0.3652  -13.9037   23.5943 H   0  0  0  0  0  0  0  0  0  0  0  0
   -3.6100  -15.5422   22.9693 H   0  0  0  0  0  0  0  0  0  0  0  0
   -2.6054  -16.8560   26.0607 H   0  0  0  0  0  0  0  0  0  0  0  0
   -2.2546  -13.9690   25.6468 H   0  0  0  0  0  0  0  0  0  0  0  0
  1  2  1  0
  2  3  1  0
  3  4  1  0
  4  5  1  0
  5  6  1  0
  6  7  2  0
  6  8  1  0
  8  9  2  0
  9 10  1  0
 10 11  2  0
 11 12  1  0
 12 13  1  0
 13 14  2  0
 14 15  1  0
 15 16  1  0
  3 17  1  0
 17 18  1  0
 18 19  2  0
 18 20  1  0
 20 21  1  0
 21 22  2  0
 22 23  1  0
 23 24  2  0
 24 25  1  0
 16  8  1  0
 25 21  1  0
 16 12  2  0
  1 26  1  0
  1 27  1  0
  1 28  1  0
  2 29  1  0
  2 30  1  0
  3 31  1  0
  4 32  1  0
  4 33  1  0
  5 34  1  0
  9 35  1  0
 10 36  1  0
 11 37  1  0
 13 38  1  0
 14 39  1  0
 15 40  1  0
 17 41  1  0
 20 42  1  0
 20 43  1  0
 22 44  1  0
 24 45  1  0
 25 46  1  0
M  END
>  <Energy>  (1239) 
442.15993889796653

>  <compound_id>  (1239) 
62356

>  <target_id>  (1239) 
1

>  <reference_id>  (1239) 
93

>  <inspiration_ids>  (1239) 
[35, 93]

>  <energy_score>  (1239) 
371.73181686080545

>  <distance_score>  (1239) 
13.579908688367968

>  <path>  (1239) 
/opt/xchem-fragalysis-2/maxwin/BulkDock/SCRATCH/511021/C62356-P93/C62356-P93.minimised.mol

>  <scratch_subdir>  (1239) 
/opt/xchem-fragalysis-2/maxwin/BulkDock/SCRATCH/511021/C62356-P93

>  <fragmenstein_runtime>  (1239) 
37.19723725318909

>  <fragmenstein_outcome>  (1239) 
too moved

>  <fragmenstein_mode>  (1239) 
expansion

>  <fragmenstein_error>  (1239) 


$$$$
C62357-P35
     RDKit          3D

 46 49  0  0  0  0  0  0  0  0999 V2000
   -1.0477  -13.5203   25.4671 C   0  0  0  0  0  0  0  0  0  0  0  0
    0.8833  -13.4988   26.0101 O   0  0  0  0  0  0  0  0  0  0  0  0
    2.0731  -13.5902   27.0749 C   0  0  0  0  0  0  0  0  0  0  0  0
    2.0675  -12.5553   27.8229 O   0  0  0  0  0  0  0  0  0  0  0  0
    3.6575  -14.7823   27.4480 C   0  0  0  0  0  0  0  0  0  0  0  0
    4.9989  -13.2850   27.3282 C   0  0  0  0  0  0  0  0  0  0  0  0
    6.6101  -12.5666   26.7291 C   0  0  0  0  0  0  0  0  0  0  0  0
    7.8025  -13.2106   26.3705 C   0  0  0  0  0  0  0  0  0  0  0  0
    8.6482  -12.3651   25.6923 N   0  0  0  0  0  0  0  0  0  0  0  0
    8.2345  -11.0721   25.8261 C   0  0  0  0  0  0  0  0  0  0  0  0
    8.8488   -9.8925   25.3549 C   0  0  0  0  0  0  0  0  0  0  0  0
    8.2697   -8.6713   25.6787 C   0  0  0  0  0  0  0  0  0  0  0  0
    7.1642   -8.6451   26.5175 C   0  0  0  0  0  0  0  0  0  0  0  0
    6.5844   -9.8418   27.0067 C   0  0  0  0  0  0  0  0  0  0  0  0
    7.0558  -11.1196   26.5941 C   0  0  0  0  0  0  0  0  0  0  0  0
    3.6713  -16.6049   28.2768 N   0  0  0  0  0  0  0  0  0  0  0  0
    4.2176  -17.1900   30.0094 C   0  0  0  0  0  0  0  0  0  0  0  0
    4.7135  -16.4528   30.8757 O   0  0  0  0  0  0  0  0  0  0  0  0
    3.9992  -18.6375   30.6259 C   0  0  0  0  0  0  0  0  0  0  0  0
    4.6896  -19.8461   30.6444 C   0  0  0  0  0  0  0  0  0  0  0  0
    3.9305  -20.7421   31.3955 N   0  0  0  0  0  0  0  0  0  0  0  0
    2.8430  -20.0903   31.9202 C   0  0  0  0  0  0  0  0  0  0  0  0
    1.6445  -20.7466   32.7086 C   0  0  0  0  0  0  0  0  0  0  0  0
    0.6613  -21.6368   31.9807 C   0  0  0  0  0  0  0  0  0  0  0  0
    0.2296  -20.2780   32.4400 C   0  0  0  0  0  0  0  0  0  0  0  0
    2.8894  -18.8202   31.5619 N   0  0  0  0  0  0  0  0  0  0  0  0
   -1.7023  -14.2802   25.9857 H   0  0  0  0  0  0  0  0  0  0  0  0
   -1.6384  -12.6219   25.5651 H   0  0  0  0  0  0  0  0  0  0  0  0
   -0.8477  -14.0564   24.5086 H   0  0  0  0  0  0  0  0  0  0  0  0
    4.1695  -14.6522   28.3256 H   0  0  0  0  0  0  0  0  0  0  0  0
    4.8522  -12.5092   28.0760 H   0  0  0  0  0  0  0  0  0  0  0  0
    4.9059  -13.3810   26.2240 H   0  0  0  0  0  0  0  0  0  0  0  0
    8.0957  -14.2530   26.4147 H   0  0  0  0  0  0  0  0  0  0  0  0
    9.4910  -12.6602   25.2187 H   0  0  0  0  0  0  0  0  0  0  0  0
    9.7577   -9.9372   24.7635 H   0  0  0  0  0  0  0  0  0  0  0  0
    8.7108   -7.7445   25.3261 H   0  0  0  0  0  0  0  0  0  0  0  0
    6.7368   -7.6915   26.8192 H   0  0  0  0  0  0  0  0  0  0  0  0
    5.7210   -9.7831   27.6655 H   0  0  0  0  0  0  0  0  0  0  0  0
    3.2245  -17.3684   27.7905 H   0  0  0  0  0  0  0  0  0  0  0  0
    5.6064  -20.1687   30.1756 H   0  0  0  0  0  0  0  0  0  0  0  0
    4.1453  -21.7180   31.5369 H   0  0  0  0  0  0  0  0  0  0  0  0
    1.8850  -20.9910   33.7378 H   0  0  0  0  0  0  0  0  0  0  0  0
    0.7844  -21.7878   30.9154 H   0  0  0  0  0  0  0  0  0  0  0  0
    0.2612  -22.4930   32.5112 H   0  0  0  0  0  0  0  0  0  0  0  0
    0.0805  -19.5029   31.6967 H   0  0  0  0  0  0  0  0  0  0  0  0
   -0.4536  -20.2167   33.2799 H   0  0  0  0  0  0  0  0  0  0  0  0
  1  2  1  0
  2  3  1  0
  3  4  2  0
  3  5  1  0
  5  6  1  0
  6  7  1  0
  7  8  2  0
  8  9  1  0
  9 10  1  0
 10 11  2  0
 11 12  1  0
 12 13  2  0
 13 14  1  0
 14 15  2  0
  5 16  1  0
 16 17  1  0
 17 18  2  0
 17 19  1  0
 19 20  2  0
 20 21  1  0
 21 22  1  0
 22 23  1  0
 23 24  1  0
 24 25  1  0
 22 26  2  0
 15  7  1  0
 26 19  1  0
 15 10  1  0
 25 23  1  0
  1 27  1  0
  1 28  1  0
  1 29  1  0
  5 30  1  0
  6 31  1  0
  6 32  1  0
  8 33  1  0
  9 34  1  0
 11 35  1  0
 12 36  1  0
 13 37  1  0
 14 38  1  0
 16 39  1  0
 20 40  1  0
 21 41  1  0
 23 42  1  0
 24 43  1  0
 24 44  1  0
 25 45  1  0
 25 46  1  0
M  END
>  <Energy>  (1240) 
705.96850212723325

>  <compound_id>  (1240) 
62357

>  <target_id>  (1240) 
1

>  <reference_id>  (1240) 
35

>  <inspiration_ids>  (1240) 
[35, 93]

>  <energy_score>  (1240) 
601.7680155803762

>  <distance_score>  (1240) 
14.303046971358473

>  <path>  (1240) 
/opt/xchem-fragalysis-2/maxwin/BulkDock/SCRATCH/511021/C62357-P35/C62357-P35.minimised.mol

>  <scratch_subdir>  (1240) 
/opt/xchem-fragalysis-2/maxwin/BulkDock/SCRATCH/511021/C62357-P35

>  <fragmenstein_runtime>  (1240) 
42.80070996284485

>  <fragmenstein_outcome>  (1240) 
too moved

>  <fragmenstein_mode>  (1240) 
expansion

>  <fragmenstein_error>  (1240) 


$$$$
C62357-P93
     RDKit          3D

 46 49  0  0  0  0  0  0  0  0999 V2000
    3.0310  -18.2570   24.9383 C   0  0  0  0  0  0  0  0  0  0  0  0
    3.2182  -17.4585   26.0723 O   0  0  0  0  0  0  0  0  0  0  0  0
    2.4552  -17.1222   27.0773 C   0  0  0  0  0  0  0  0  0  0  0  0
    1.3172  -17.5761   27.2347 O   0  0  0  0  0  0  0  0  0  0  0  0
    3.1040  -16.0478   27.9512 C   0  0  0  0  0  0  0  0  0  0  0  0
    3.7752  -14.3312   27.3475 C   0  0  0  0  0  0  0  0  0  0  0  0
    5.1542  -12.9572   27.5482 C   0  0  0  0  0  0  0  0  0  0  0  0
    6.0829  -12.6404   26.4978 C   0  0  0  0  0  0  0  0  0  0  0  0
    7.0699  -11.7483   26.7720 N   0  0  0  0  0  0  0  0  0  0  0  0
    6.5688  -10.9095   27.7141 C   0  0  0  0  0  0  0  0  0  0  0  0
    6.9848   -9.5925   27.9591 C   0  0  0  0  0  0  0  0  0  0  0  0
    6.2485   -8.8580   28.8668 C   0  0  0  0  0  0  0  0  0  0  0  0
    5.1888   -9.4612   29.5357 C   0  0  0  0  0  0  0  0  0  0  0  0
    4.8123  -10.8075   29.3066 C   0  0  0  0  0  0  0  0  0  0  0  0
    5.4749  -11.5862   28.3293 C   0  0  0  0  0  0  0  0  0  0  0  0
    1.4813  -16.3099   28.8737 N   0  0  0  0  0  0  0  0  0  0  0  0
    1.1944  -16.8658   30.2718 C   0  0  0  0  0  0  0  0  0  0  0  0
    1.9524  -17.1904   31.1568 O   0  0  0  0  0  0  0  0  0  0  0  0
   -0.3187  -17.1153   30.4541 C   0  0  0  0  0  0  0  0  0  0  0  0
   -1.2367  -17.3426   29.4263 C   0  0  0  0  0  0  0  0  0  0  0  0
   -2.3635  -17.8712   29.9920 N   0  0  0  0  0  0  0  0  0  0  0  0
   -2.1409  -17.9803   31.3311 C   0  0  0  0  0  0  0  0  0  0  0  0
   -3.1590  -18.6542   32.2951 C   0  0  0  0  0  0  0  0  0  0  0  0
   -4.0072  -17.8251   33.2193 C   0  0  0  0  0  0  0  0  0  0  0  0
   -4.6380  -18.4813   32.0290 C   0  0  0  0  0  0  0  0  0  0  0  0
   -0.9368  -17.5396   31.6489 N   0  0  0  0  0  0  0  0  0  0  0  0
    2.0278  -18.4414   24.6870 H   0  0  0  0  0  0  0  0  0  0  0  0
    3.2996  -17.6437   24.0998 H   0  0  0  0  0  0  0  0  0  0  0  0
    3.5693  -19.1914   25.0472 H   0  0  0  0  0  0  0  0  0  0  0  0
    3.8661  -16.6438   28.4474 H   0  0  0  0  0  0  0  0  0  0  0  0
    4.0295  -14.5600   26.2976 H   0  0  0  0  0  0  0  0  0  0  0  0
    2.8504  -13.7780   27.3387 H   0  0  0  0  0  0  0  0  0  0  0  0
    5.9890  -12.8885   25.4892 H   0  0  0  0  0  0  0  0  0  0  0  0
    7.7985  -11.4844   26.1233 H   0  0  0  0  0  0  0  0  0  0  0  0
    7.8157   -9.1485   27.4211 H   0  0  0  0  0  0  0  0  0  0  0  0
    6.5071   -7.8236   29.0741 H   0  0  0  0  0  0  0  0  0  0  0  0
    4.6257   -8.8827   30.2664 H   0  0  0  0  0  0  0  0  0  0  0  0
    3.9509  -11.2050   29.8346 H   0  0  0  0  0  0  0  0  0  0  0  0
    0.6436  -16.2302   28.3826 H   0  0  0  0  0  0  0  0  0  0  0  0
   -1.1563  -17.2846   28.3528 H   0  0  0  0  0  0  0  0  0  0  0  0
   -3.1905  -18.1974   29.5131 H   0  0  0  0  0  0  0  0  0  0  0  0
   -2.8145  -19.6100   32.6694 H   0  0  0  0  0  0  0  0  0  0  0  0
   -3.8701  -16.7501   33.2051 H   0  0  0  0  0  0  0  0  0  0  0  0
   -4.2252  -18.2284   34.2008 H   0  0  0  0  0  0  0  0  0  0  0  0
   -4.9792  -17.8312   31.2333 H   0  0  0  0  0  0  0  0  0  0  0  0
   -5.2822  -19.3350   32.1875 H   0  0  0  0  0  0  0  0  0  0  0  0
  1  2  1  0
  2  3  1  0
  3  4  2  0
  3  5  1  0
  5  6  1  0
  6  7  1  0
  7  8  2  0
  8  9  1  0
  9 10  1  0
 10 11  2  0
 11 12  1  0
 12 13  2  0
 13 14  1  0
 14 15  2  0
  5 16  1  0
 16 17  1  0
 17 18  2  0
 17 19  1  0
 19 20  2  0
 20 21  1  0
 21 22  1  0
 22 23  1  0
 23 24  1  0
 24 25  1  0
 22 26  2  0
 15  7  1  0
 26 19  1  0
 15 10  1  0
 25 23  1  0
  1 27  1  0
  1 28  1  0
  1 29  1  0
  5 30  1  0
  6 31  1  0
  6 32  1  0
  8 33  1  0
  9 34  1  0
 11 35  1  0
 12 36  1  0
 13 37  1  0
 14 38  1  0
 16 39  1  0
 20 40  1  0
 21 41  1  0
 23 42  1  0
 24 43  1  0
 24 44  1  0
 25 45  1  0
 25 46  1  0
M  END
>  <Energy>  (1241) 
335.19598454877695

>  <compound_id>  (1241) 
62357

>  <target_id>  (1241) 
1

>  <reference_id>  (1241) 
93

>  <inspiration_ids>  (1241) 
[35, 93]

>  <energy_score>  (1241) 
230.99549800190562

>  <distance_score>  (1241) 
14.026515150549201

>  <path>  (1241) 
/opt/xchem-fragalysis-2/maxwin/BulkDock/SCRATCH/511021/C62357-P93/C62357-P93.minimised.mol

>  <scratch_subdir>  (1241) 
/opt/xchem-fragalysis-2/maxwin/BulkDock/SCRATCH/511021/C62357-P93

>  <fragmenstein_runtime>  (1241) 
53.11939716339111

>  <fragmenstein_outcome>  (1241) 
too moved

>  <fragmenstein_mode>  (1241) 
expansion

>  <fragmenstein_error>  (1241) 


$$$$
C62359-P35
     RDKit          3D

 47 50  0  0  0  0  0  0  0  0999 V2000
    4.6629  -15.0995   24.8920 C   0  0  0  0  0  0  0  0  0  0  0  0
    3.8153  -14.0810   24.6918 N   0  0  0  0  0  0  0  0  0  0  0  0
    3.1285  -13.7087   23.5938 C   0  0  0  0  0  0  0  0  0  0  0  0
    3.0746  -14.1982   22.5348 O   0  0  0  0  0  0  0  0  0  0  0  0
    2.1649  -12.4881   23.7879 C   0  0  0  0  0  0  0  0  0  0  0  0
    3.1321  -10.7734   22.9644 C   0  0  0  0  0  0  0  0  0  0  0  0
    2.7804   -8.6626   22.8127 C   0  0  0  0  0  0  0  0  0  0  0  0
    3.6002   -7.4298   23.2125 C   0  0  0  0  0  0  0  0  0  0  0  0
    2.8360   -6.2912   23.2635 N   0  0  0  0  0  0  0  0  0  0  0  0
    1.7281   -6.4419   22.4751 C   0  0  0  0  0  0  0  0  0  0  0  0
    1.0030   -5.4360   21.8267 C   0  0  0  0  0  0  0  0  0  0  0  0
    0.0443   -5.8330   20.9026 C   0  0  0  0  0  0  0  0  0  0  0  0
   -0.2422   -7.1812   20.7202 C   0  0  0  0  0  0  0  0  0  0  0  0
    0.4444   -8.1774   21.4295 C   0  0  0  0  0  0  0  0  0  0  0  0
    1.5213   -7.8267   22.2651 C   0  0  0  0  0  0  0  0  0  0  0  0
    0.7910  -14.0071   23.3744 N   0  0  0  0  0  0  0  0  0  0  0  0
    0.6036  -15.1953   21.8258 C   0  0  0  0  0  0  0  0  0  0  0  0
    1.4884  -15.0834   21.0145 O   0  0  0  0  0  0  0  0  0  0  0  0
   -0.5669  -16.3530   21.1915 C   0  0  0  0  0  0  0  0  0  0  0  0
   -0.4328  -17.6753   20.8339 C   0  0  0  0  0  0  0  0  0  0  0  0
   -1.4911  -18.0586   20.0320 N   0  0  0  0  0  0  0  0  0  0  0  0
   -2.3472  -17.0293   19.8548 C   0  0  0  0  0  0  0  0  0  0  0  0
   -3.8491  -17.1839   19.4473 C   0  0  0  0  0  0  0  0  0  0  0  0
   -4.9409  -16.7863   20.4157 C   0  0  0  0  0  0  0  0  0  0  0  0
   -4.7003  -18.2386   20.1339 C   0  0  0  0  0  0  0  0  0  0  0  0
   -1.6986  -15.9293   20.1818 N   0  0  0  0  0  0  0  0  0  0  0  0
    4.4405  -16.0845   24.4862 H   0  0  0  0  0  0  0  0  0  0  0  0
    5.1152  -15.1644   23.9427 H   0  0  0  0  0  0  0  0  0  0  0  0
    5.4568  -14.8426   25.4614 H   0  0  0  0  0  0  0  0  0  0  0  0
    3.5605  -13.4721   25.4539 H   0  0  0  0  0  0  0  0  0  0  0  0
    1.9010  -12.3004   24.7955 H   0  0  0  0  0  0  0  0  0  0  0  0
    4.2739  -10.5388   22.8963 H   0  0  0  0  0  0  0  0  0  0  0  0
    3.6922  -11.4409   22.2493 H   0  0  0  0  0  0  0  0  0  0  0  0
    4.6151   -7.3419   23.5776 H   0  0  0  0  0  0  0  0  0  0  0  0
    3.1950   -5.3920   23.5457 H   0  0  0  0  0  0  0  0  0  0  0  0
    1.2291   -4.3855   21.9739 H   0  0  0  0  0  0  0  0  0  0  0  0
   -0.5043   -5.0865   20.3347 H   0  0  0  0  0  0  0  0  0  0  0  0
   -1.0046   -7.4849   20.0056 H   0  0  0  0  0  0  0  0  0  0  0  0
    0.2306   -9.2217   21.2396 H   0  0  0  0  0  0  0  0  0  0  0  0
   -0.0405  -14.1087   23.9546 H   0  0  0  0  0  0  0  0  0  0  0  0
    0.3184  -18.3636   21.1189 H   0  0  0  0  0  0  0  0  0  0  0  0
   -1.6085  -18.9590   19.5961 H   0  0  0  0  0  0  0  0  0  0  0  0
   -4.0335  -16.9890   18.3966 H   0  0  0  0  0  0  0  0  0  0  0  0
   -4.6253  -16.3368   21.3474 H   0  0  0  0  0  0  0  0  0  0  0  0
   -5.8272  -16.3226   19.9976 H   0  0  0  0  0  0  0  0  0  0  0  0
   -5.4294  -18.7623   19.5257 H   0  0  0  0  0  0  0  0  0  0  0  0
   -4.2499  -18.8540   20.8984 H   0  0  0  0  0  0  0  0  0  0  0  0
  1  2  1  0
  2  3  1  0
  3  4  2  0
  3  5  1  0
  5  6  1  0
  6  7  1  0
  7  8  2  0
  8  9  1  0
  9 10  1  0
 10 11  2  0
 11 12  1  0
 12 13  2  0
 13 14  1  0
 14 15  2  0
  5 16  1  0
 16 17  1  0
 17 18  2  0
 17 19  1  0
 19 20  2  0
 20 21  1  0
 21 22  1  0
 22 23  1  0
 23 24  1  0
 24 25  1  0
 22 26  2  0
 15  7  1  0
 26 19  1  0
 15 10  1  0
 25 23  1  0
  1 27  1  0
  1 28  1  0
  1 29  1  0
  2 30  1  0
  5 31  1  0
  6 32  1  0
  6 33  1  0
  8 34  1  0
  9 35  1  0
 11 36  1  0
 12 37  1  0
 13 38  1  0
 14 39  1  0
 16 40  1  0
 20 41  1  0
 21 42  1  0
 23 43  1  0
 24 44  1  0
 24 45  1  0
 25 46  1  0
 25 47  1  0
M  END
>  <Energy>  (1242) 
747.82626378708915

>  <compound_id>  (1242) 
62359

>  <target_id>  (1242) 
1

>  <reference_id>  (1242) 
35

>  <inspiration_ids>  (1242) 
[35, 93]

>  <energy_score>  (1242) 
664.6407925584816

>  <distance_score>  (1242) 
15.656647779181602

>  <path>  (1242) 
/opt/xchem-fragalysis-2/maxwin/BulkDock/SCRATCH/511021/C62359-P35/C62359-P35.minimised.mol

>  <scratch_subdir>  (1242) 
/opt/xchem-fragalysis-2/maxwin/BulkDock/SCRATCH/511021/C62359-P35

>  <fragmenstein_runtime>  (1242) 
35.305233001708984

>  <fragmenstein_outcome>  (1242) 
too moved

>  <fragmenstein_mode>  (1242) 
expansion

>  <fragmenstein_error>  (1242) 


$$$$
C62359-P93
     RDKit          3D

 47 50  0  0  0  0  0  0  0  0999 V2000
    3.7157  -16.1258   23.3404 C   0  0  0  0  0  0  0  0  0  0  0  0
    3.3713  -14.7472   22.4703 N   0  0  0  0  0  0  0  0  0  0  0  0
    3.0375  -14.3786   21.4835 C   0  0  0  0  0  0  0  0  0  0  0  0
    2.6494  -15.6772   20.6719 O   0  0  0  0  0  0  0  0  0  0  0  0
    2.9471  -13.5025   20.7672 C   0  0  0  0  0  0  0  0  0  0  0  0
    4.4819  -12.9703   19.6119 C   0  0  0  0  0  0  0  0  0  0  0  0
    5.9665  -11.7950   19.9545 C   0  0  0  0  0  0  0  0  0  0  0  0
    6.7845  -12.5204   20.7388 C   0  0  0  0  0  0  0  0  0  0  0  0
    8.1973  -12.5109   20.7093 N   0  0  0  0  0  0  0  0  0  0  0  0
    8.6189  -11.5687   19.7234 C   0  0  0  0  0  0  0  0  0  0  0  0
    9.9403  -11.3532   19.2097 C   0  0  0  0  0  0  0  0  0  0  0  0
   10.1305  -10.1037   19.6293 C   0  0  0  0  0  0  0  0  0  0  0  0
    9.0323   -9.2475   19.4515 C   0  0  0  0  0  0  0  0  0  0  0  0
    7.7060   -9.5539   18.9976 C   0  0  0  0  0  0  0  0  0  0  0  0
    7.3308  -10.8138   19.4325 C   0  0  0  0  0  0  0  0  0  0  0  0
    1.2462  -14.8464   21.1539 N   0  0  0  0  0  0  0  0  0  0  0  0
    0.5419  -16.3601   20.2654 C   0  0  0  0  0  0  0  0  0  0  0  0
    0.9522  -16.9712   19.3298 O   0  0  0  0  0  0  0  0  0  0  0  0
   -0.8257  -16.8904   20.6337 C   0  0  0  0  0  0  0  0  0  0  0  0
   -1.8928  -16.3199   19.8263 C   0  0  0  0  0  0  0  0  0  0  0  0
   -2.9794  -17.1498   19.7675 N   0  0  0  0  0  0  0  0  0  0  0  0
   -2.6142  -18.3338   20.3114 C   0  0  0  0  0  0  0  0  0  0  0  0
   -3.5439  -19.6349   20.1024 C   0  0  0  0  0  0  0  0  0  0  0  0
   -3.9179  -20.7112   21.0977 C   0  0  0  0  0  0  0  0  0  0  0  0
   -4.9244  -19.6663   20.7390 C   0  0  0  0  0  0  0  0  0  0  0  0
   -1.3598  -18.2178   20.7874 N   0  0  0  0  0  0  0  0  0  0  0  0
    4.1782  -15.5842   24.3039 H   0  0  0  0  0  0  0  0  0  0  0  0
    4.7497  -16.2383   23.6898 H   0  0  0  0  0  0  0  0  0  0  0  0
    3.3420  -17.1311   23.5205 H   0  0  0  0  0  0  0  0  0  0  0  0
    3.6516  -14.6681   23.3925 H   0  0  0  0  0  0  0  0  0  0  0  0
    3.2611  -12.7912   21.5967 H   0  0  0  0  0  0  0  0  0  0  0  0
    4.0280  -12.6730   18.6666 H   0  0  0  0  0  0  0  0  0  0  0  0
    5.1020  -13.7997   19.2806 H   0  0  0  0  0  0  0  0  0  0  0  0
    6.2493  -13.3268   21.0436 H   0  0  0  0  0  0  0  0  0  0  0  0
    8.8739  -13.0294   21.2328 H   0  0  0  0  0  0  0  0  0  0  0  0
   10.0232  -11.3766   18.1057 H   0  0  0  0  0  0  0  0  0  0  0  0
   10.8402   -9.8896   20.4214 H   0  0  0  0  0  0  0  0  0  0  0  0
    9.1920   -8.3088   19.9599 H   0  0  0  0  0  0  0  0  0  0  0  0
    7.0177   -8.7194   18.8869 H   0  0  0  0  0  0  0  0  0  0  0  0
    0.6911  -14.6073   21.9834 H   0  0  0  0  0  0  0  0  0  0  0  0
   -1.9298  -15.3956   19.2745 H   0  0  0  0  0  0  0  0  0  0  0  0
   -3.8319  -16.9748   19.2600 H   0  0  0  0  0  0  0  0  0  0  0  0
   -3.4626  -19.9834   19.0742 H   0  0  0  0  0  0  0  0  0  0  0  0
   -3.4856  -20.7461   22.0825 H   0  0  0  0  0  0  0  0  0  0  0  0
   -4.0641  -21.7118   20.6982 H   0  0  0  0  0  0  0  0  0  0  0  0
   -5.7559  -19.9601   20.1078 H   0  0  0  0  0  0  0  0  0  0  0  0
   -5.1864  -18.9277   21.4815 H   0  0  0  0  0  0  0  0  0  0  0  0
  1  2  1  0
  2  3  1  0
  3  4  2  0
  3  5  1  0
  5  6  1  0
  6  7  1  0
  7  8  2  0
  8  9  1  0
  9 10  1  0
 10 11  2  0
 11 12  1  0
 12 13  2  0
 13 14  1  0
 14 15  2  0
  5 16  1  0
 16 17  1  0
 17 18  2  0
 17 19  1  0
 19 20  2  0
 20 21  1  0
 21 22  1  0
 22 23  1  0
 23 24  1  0
 24 25  1  0
 22 26  2  0
 15  7  1  0
 26 19  1  0
 15 10  1  0
 25 23  1  0
  1 27  1  0
  1 28  1  0
  1 29  1  0
  2 30  1  0
  5 31  1  0
  6 32  1  0
  6 33  1  0
  8 34  1  0
  9 35  1  0
 11 36  1  0
 12 37  1  0
 13 38  1  0
 14 39  1  0
 16 40  1  0
 20 41  1  0
 21 42  1  0
 23 43  1  0
 24 44  1  0
 24 45  1  0
 25 46  1  0
 25 47  1  0
M  END
>  <Energy>  (1243) 
1198.3931992650323

>  <compound_id>  (1243) 
62359

>  <target_id>  (1243) 
1

>  <reference_id>  (1243) 
93

>  <inspiration_ids>  (1243) 
[35, 93]

>  <energy_score>  (1243) 
1115.2077280364088

>  <distance_score>  (1243) 
13.73407353639836

>  <path>  (1243) 
/opt/xchem-fragalysis-2/maxwin/BulkDock/SCRATCH/511021/C62359-P93/C62359-P93.minimised.mol

>  <scratch_subdir>  (1243) 
/opt/xchem-fragalysis-2/maxwin/BulkDock/SCRATCH/511021/C62359-P93

>  <fragmenstein_runtime>  (1243) 
43.19458293914795

>  <fragmenstein_outcome>  (1243) 
too moved

>  <fragmenstein_mode>  (1243) 
expansion

>  <fragmenstein_error>  (1243) 


$$$$
C62361-P35
     RDKit          3D

 43 45  0  0  0  0  0  0  0  0999 V2000
   -2.8968  -11.9305   28.4432 C   0  0  0  0  0  0  0  0  0  0  0  0
   -2.1969  -12.8777   29.2915 N   0  0  0  0  0  0  0  0  0  0  0  0
   -0.8374  -13.0483   29.1482 C   0  0  0  0  0  0  0  0  0  0  0  0
   -0.3717  -13.9074   30.0145 N   0  0  0  0  0  0  0  0  0  0  0  0
   -1.4795  -14.3199   30.7404 C   0  0  0  0  0  0  0  0  0  0  0  0
   -2.6729  -13.7245   30.3349 C   0  0  0  0  0  0  0  0  0  0  0  0
   -4.4327  -13.8277   30.9313 S   0  0  0  0  0  0  0  0  0  0  0  0
   -5.1194  -14.1357   29.6931 O   0  0  0  0  0  0  0  0  0  0  0  0
   -4.5884  -12.5403   31.5738 O   0  0  0  0  0  0  0  0  0  0  0  0
   -4.9858  -15.1078   32.1061 N   0  0  0  0  0  0  0  0  0  0  0  0
   -6.3505  -14.7811   33.0641 C   0  0  0  0  0  0  0  0  0  0  0  0
   -5.7734  -13.9948   34.2651 C   0  0  0  0  0  0  0  0  0  0  0  0
   -7.2300  -13.7959   32.2142 C   0  0  0  0  0  0  0  0  0  0  0  0
   -7.2602  -16.2154   33.4631 C   0  0  0  0  0  0  0  0  0  0  0  0
   -7.7523  -16.7723   34.8500 C   0  0  0  0  0  0  0  0  0  0  0  0
   -7.6185  -16.1994   36.0985 C   0  0  0  0  0  0  0  0  0  0  0  0
   -8.1903  -17.0085   37.0474 N   0  0  0  0  0  0  0  0  0  0  0  0
   -8.6632  -18.1658   36.4939 C   0  0  0  0  0  0  0  0  0  0  0  0
   -9.2058  -19.3058   37.1215 C   0  0  0  0  0  0  0  0  0  0  0  0
   -9.6326  -20.3662   36.3262 C   0  0  0  0  0  0  0  0  0  0  0  0
   -9.5430  -20.2659   34.9549 C   0  0  0  0  0  0  0  0  0  0  0  0
   -8.9518  -19.1350   34.3757 C   0  0  0  0  0  0  0  0  0  0  0  0
   -8.4680  -18.0421   35.1204 C   0  0  0  0  0  0  0  0  0  0  0  0
   -3.7938  -11.5893   28.9636 H   0  0  0  0  0  0  0  0  0  0  0  0
   -3.1649  -12.4444   27.5172 H   0  0  0  0  0  0  0  0  0  0  0  0
   -2.2462  -11.0759   28.2403 H   0  0  0  0  0  0  0  0  0  0  0  0
   -0.2547  -12.5190   28.4055 H   0  0  0  0  0  0  0  0  0  0  0  0
   -1.3689  -15.0383   31.5435 H   0  0  0  0  0  0  0  0  0  0  0  0
   -5.2693  -15.8868   31.5054 H   0  0  0  0  0  0  0  0  0  0  0  0
   -6.5278  -13.7095   34.9966 H   0  0  0  0  0  0  0  0  0  0  0  0
   -4.9787  -14.5219   34.7900 H   0  0  0  0  0  0  0  0  0  0  0  0
   -5.3117  -13.0588   33.9327 H   0  0  0  0  0  0  0  0  0  0  0  0
   -6.9638  -13.7481   31.1635 H   0  0  0  0  0  0  0  0  0  0  0  0
   -8.2852  -14.0719   32.1803 H   0  0  0  0  0  0  0  0  0  0  0  0
   -7.1690  -12.7681   32.5899 H   0  0  0  0  0  0  0  0  0  0  0  0
   -6.7646  -17.0552   32.9578 H   0  0  0  0  0  0  0  0  0  0  0  0
   -8.2444  -16.0612   33.0128 H   0  0  0  0  0  0  0  0  0  0  0  0
   -7.1170  -15.3022   36.4251 H   0  0  0  0  0  0  0  0  0  0  0  0
   -8.1029  -16.8610   38.0415 H   0  0  0  0  0  0  0  0  0  0  0  0
   -9.2701  -19.3662   38.2042 H   0  0  0  0  0  0  0  0  0  0  0  0
  -10.0182  -21.2717   36.7811 H   0  0  0  0  0  0  0  0  0  0  0  0
   -9.8726  -21.0842   34.3214 H   0  0  0  0  0  0  0  0  0  0  0  0
   -8.8454  -19.1542   33.3191 H   0  0  0  0  0  0  0  0  0  0  0  0
  1  2  1  0
  2  3  1  0
  3  4  2  0
  4  5  1  0
  5  6  2  0
  6  7  1  0
  7  8  2  0
  7  9  2  0
  7 10  1  0
 10 11  1  0
 11 12  1  0
 11 13  1  0
 11 14  1  0
 14 15  1  0
 15 16  2  0
 16 17  1  0
 17 18  1  0
 18 19  2  0
 19 20  1  0
 20 21  2  0
 21 22  1  0
 22 23  2  0
  6  2  1  0
 23 15  1  0
 23 18  1  0
  1 24  1  0
  1 25  1  0
  1 26  1  0
  3 27  1  0
  5 28  1  0
 10 29  1  0
 12 30  1  0
 12 31  1  0
 12 32  1  0
 13 33  1  0
 13 34  1  0
 13 35  1  0
 14 36  1  0
 14 37  1  0
 16 38  1  0
 17 39  1  0
 19 40  1  0
 20 41  1  0
 21 42  1  0
 22 43  1  0
M  END
>  <Energy>  (1244) 
14.266277454511874

>  <compound_id>  (1244) 
62361

>  <target_id>  (1244) 
1

>  <reference_id>  (1244) 
35

>  <inspiration_ids>  (1244) 
[35, 93]

>  <energy_score>  (1244) 
13.418223188154343

>  <distance_score>  (1244) 
14.501432851085545

>  <path>  (1244) 
/opt/xchem-fragalysis-2/maxwin/BulkDock/SCRATCH/511021/C62361-P35/C62361-P35.minimised.mol

>  <scratch_subdir>  (1244) 
/opt/xchem-fragalysis-2/maxwin/BulkDock/SCRATCH/511021/C62361-P35

>  <fragmenstein_runtime>  (1244) 
33.420649766922

>  <fragmenstein_outcome>  (1244) 
too moved

>  <fragmenstein_mode>  (1244) 
expansion

>  <fragmenstein_error>  (1244) 


$$$$
C62361-P93
     RDKit          3D

 43 45  0  0  0  0  0  0  0  0999 V2000
   -0.4946  -12.1925   22.7624 C   0  0  0  0  0  0  0  0  0  0  0  0
    0.2328  -12.8953   23.7983 N   0  0  0  0  0  0  0  0  0  0  0  0
    1.5958  -13.0322   23.7772 C   0  0  0  0  0  0  0  0  0  0  0  0
    2.0512  -13.4729   24.9224 N   0  0  0  0  0  0  0  0  0  0  0  0
    0.9242  -13.7655   25.6547 C   0  0  0  0  0  0  0  0  0  0  0  0
   -0.2544  -13.4944   24.9697 C   0  0  0  0  0  0  0  0  0  0  0  0
   -1.9982  -13.7402   25.3786 S   0  0  0  0  0  0  0  0  0  0  0  0
   -2.4803  -14.6434   24.3617 O   0  0  0  0  0  0  0  0  0  0  0  0
   -2.4752  -12.3744   25.4398 O   0  0  0  0  0  0  0  0  0  0  0  0
   -2.2781  -14.3707   26.9103 N   0  0  0  0  0  0  0  0  0  0  0  0
   -2.3344  -15.7992   27.3499 C   0  0  0  0  0  0  0  0  0  0  0  0
   -1.2712  -15.9216   28.4545 C   0  0  0  0  0  0  0  0  0  0  0  0
   -1.9378  -16.7914   26.2444 C   0  0  0  0  0  0  0  0  0  0  0  0
   -3.7554  -16.1794   27.8590 C   0  0  0  0  0  0  0  0  0  0  0  0
   -4.4903  -15.1788   28.7115 C   0  0  0  0  0  0  0  0  0  0  0  0
   -5.5971  -14.4829   28.2597 C   0  0  0  0  0  0  0  0  0  0  0  0
   -6.0879  -13.7357   29.2898 N   0  0  0  0  0  0  0  0  0  0  0  0
   -5.4252  -14.0487   30.4507 C   0  0  0  0  0  0  0  0  0  0  0  0
   -5.7368  -13.7263   31.7760 C   0  0  0  0  0  0  0  0  0  0  0  0
   -4.8151  -14.0727   32.7618 C   0  0  0  0  0  0  0  0  0  0  0  0
   -3.6065  -14.6628   32.4211 C   0  0  0  0  0  0  0  0  0  0  0  0
   -3.3486  -15.0388   31.0999 C   0  0  0  0  0  0  0  0  0  0  0  0
   -4.3028  -14.7894   30.0876 C   0  0  0  0  0  0  0  0  0  0  0  0
   -1.3513  -12.8041   22.4697 H   0  0  0  0  0  0  0  0  0  0  0  0
    0.1471  -12.0364   21.8942 H   0  0  0  0  0  0  0  0  0  0  0  0
   -0.8320  -11.2372   23.1705 H   0  0  0  0  0  0  0  0  0  0  0  0
    2.2050  -12.7583   22.9281 H   0  0  0  0  0  0  0  0  0  0  0  0
    1.0046  -14.1932   26.6459 H   0  0  0  0  0  0  0  0  0  0  0  0
   -2.8843  -13.7428   27.4464 H   0  0  0  0  0  0  0  0  0  0  0  0
   -1.3114  -15.0788   29.1496 H   0  0  0  0  0  0  0  0  0  0  0  0
   -0.2599  -15.9059   28.0300 H   0  0  0  0  0  0  0  0  0  0  0  0
   -1.3764  -16.8560   29.0156 H   0  0  0  0  0  0  0  0  0  0  0  0
   -0.9735  -16.5363   25.7914 H   0  0  0  0  0  0  0  0  0  0  0  0
   -1.8499  -17.8070   26.6490 H   0  0  0  0  0  0  0  0  0  0  0  0
   -2.6864  -16.8367   25.4473 H   0  0  0  0  0  0  0  0  0  0  0  0
   -3.7164  -17.1536   28.3510 H   0  0  0  0  0  0  0  0  0  0  0  0
   -4.3854  -16.3507   26.9726 H   0  0  0  0  0  0  0  0  0  0  0  0
   -6.0850  -14.4748   27.2933 H   0  0  0  0  0  0  0  0  0  0  0  0
   -6.9154  -13.1574   29.2442 H   0  0  0  0  0  0  0  0  0  0  0  0
   -6.6533  -13.2056   32.0321 H   0  0  0  0  0  0  0  0  0  0  0  0
   -5.0250  -13.8274   33.8001 H   0  0  0  0  0  0  0  0  0  0  0  0
   -2.8681  -14.8733   33.1893 H   0  0  0  0  0  0  0  0  0  0  0  0
   -2.4382  -15.5884   30.8943 H   0  0  0  0  0  0  0  0  0  0  0  0
  1  2  1  0
  2  3  1  0
  3  4  2  0
  4  5  1  0
  5  6  2  0
  6  7  1  0
  7  8  2  0
  7  9  2  0
  7 10  1  0
 10 11  1  0
 11 12  1  0
 11 13  1  0
 11 14  1  0
 14 15  1  0
 15 16  2  0
 16 17  1  0
 17 18  1  0
 18 19  2  0
 19 20  1  0
 20 21  2  0
 21 22  1  0
 22 23  2  0
  6  2  1  0
 23 15  1  0
 23 18  1  0
  1 24  1  0
  1 25  1  0
  1 26  1  0
  3 27  1  0
  5 28  1  0
 10 29  1  0
 12 30  1  0
 12 31  1  0
 12 32  1  0
 13 33  1  0
 13 34  1  0
 13 35  1  0
 14 36  1  0
 14 37  1  0
 16 38  1  0
 17 39  1  0
 19 40  1  0
 20 41  1  0
 21 42  1  0
 22 43  1  0
M  END
>  <Energy>  (1245) 
-41.532793754229061

>  <compound_id>  (1245) 
62361

>  <target_id>  (1245) 
1

>  <reference_id>  (1245) 
93

>  <inspiration_ids>  (1245) 
[35, 93]

>  <energy_score>  (1245) 
-42.38084802058614

>  <distance_score>  (1245) 
14.623428950245827

>  <path>  (1245) 
/opt/xchem-fragalysis-2/maxwin/BulkDock/SCRATCH/511021/C62361-P93/C62361-P93.minimised.mol

>  <scratch_subdir>  (1245) 
/opt/xchem-fragalysis-2/maxwin/BulkDock/SCRATCH/511021/C62361-P93

>  <fragmenstein_runtime>  (1245) 
34.5003182888031

>  <fragmenstein_outcome>  (1245) 
too moved

>  <fragmenstein_mode>  (1245) 
expansion

>  <fragmenstein_error>  (1245) 


$$$$
C62362-P35
     RDKit          3D

 35 38  0  0  0  0  0  0  0  0999 V2000
    1.2181  -22.0010   24.2134 O   0  0  0  0  0  0  0  0  0  0  0  0
    1.2869  -20.9336   24.7594 C   0  0  0  0  0  0  0  0  0  0  0  0
    0.3259  -20.2322   25.6037 N   0  0  0  0  0  0  0  0  0  0  0  0
   -0.9094  -20.6296   26.1036 C   0  0  0  0  0  0  0  0  0  0  0  0
   -1.9607  -19.7900   26.4169 C   0  0  0  0  0  0  0  0  0  0  0  0
   -2.7970  -20.4282   27.3067 N   0  0  0  0  0  0  0  0  0  0  0  0
   -2.1920  -21.5783   27.7532 C   0  0  0  0  0  0  0  0  0  0  0  0
   -2.4506  -22.3485   28.8932 C   0  0  0  0  0  0  0  0  0  0  0  0
   -1.6043  -23.4255   29.1501 C   0  0  0  0  0  0  0  0  0  0  0  0
   -0.5859  -23.7649   28.2623 C   0  0  0  0  0  0  0  0  0  0  0  0
   -0.3272  -22.9737   27.1366 C   0  0  0  0  0  0  0  0  0  0  0  0
   -1.1160  -21.8278   26.8919 C   0  0  0  0  0  0  0  0  0  0  0  0
    2.6292  -20.2096   24.6625 C   0  0  0  0  0  0  0  0  0  0  0  0
    3.1579  -20.4137   25.8558 C   0  0  0  0  0  0  0  0  0  0  0  0
    3.2688  -19.3084   26.5780 N   0  0  0  0  0  0  0  0  0  0  0  0
    2.9990  -18.0040   26.1899 C   0  0  0  0  0  0  0  0  0  0  0  0
    3.3116  -17.6831   24.9734 C   0  0  0  0  0  0  0  0  0  0  0  0
    4.3614  -16.0960   24.5666 N   0  0  0  0  0  0  0  0  0  0  0  0
    3.9952  -15.0365   23.7672 C   0  0  0  0  0  0  0  0  0  0  0  0
    3.6397  -13.8877   24.4008 C   0  0  0  0  0  0  0  0  0  0  0  0
    4.4586  -13.8681   25.4501 N   0  0  0  0  0  0  0  0  0  0  0  0
    4.3653  -15.0770   25.7512 C   0  0  0  0  0  0  0  0  0  0  0  0
    2.9230  -18.9595   24.1943 N   0  0  0  0  0  0  0  0  0  0  0  0
    0.6857  -19.3160   25.8223 H   0  0  0  0  0  0  0  0  0  0  0  0
   -2.1726  -18.7699   26.1409 H   0  0  0  0  0  0  0  0  0  0  0  0
   -3.6012  -20.0037   27.7476 H   0  0  0  0  0  0  0  0  0  0  0  0
   -3.2002  -22.0532   29.6152 H   0  0  0  0  0  0  0  0  0  0  0  0
   -1.7228  -23.9917   30.0703 H   0  0  0  0  0  0  0  0  0  0  0  0
    0.0550  -24.6174   28.4735 H   0  0  0  0  0  0  0  0  0  0  0  0
    0.5252  -23.1973   26.5018 H   0  0  0  0  0  0  0  0  0  0  0  0
    3.1891  -21.3552   26.3868 H   0  0  0  0  0  0  0  0  0  0  0  0
    2.9847  -17.2101   26.9092 H   0  0  0  0  0  0  0  0  0  0  0  0
    3.8549  -15.1492   22.7657 H   0  0  0  0  0  0  0  0  0  0  0  0
    3.1236  -13.0430   23.9410 H   0  0  0  0  0  0  0  0  0  0  0  0
    4.1127  -15.4297   26.7511 H   0  0  0  0  0  0  0  0  0  0  0  0
  1  2  2  0
  2  3  1  0
  3  4  1  0
  4  5  2  0
  5  6  1  0
  6  7  1  0
  7  8  2  0
  8  9  1  0
  9 10  2  0
 10 11  1  0
 11 12  2  0
  2 13  1  0
 13 14  2  0
 14 15  1  0
 15 16  2  0
 16 17  1  0
 17 18  1  0
 18 19  1  0
 19 20  2  0
 20 21  1  0
 21 22  2  0
 17 23  2  0
 12  4  1  0
 23 13  1  0
 12  7  1  0
 22 18  1  0
  3 24  1  0
  5 25  1  0
  6 26  1  0
  8 27  1  0
  9 28  1  0
 10 29  1  0
 11 30  1  0
 14 31  1  0
 16 32  1  0
 19 33  1  0
 20 34  1  0
 22 35  1  0
M  END
>  <Energy>  (1246) 
406.31385153977652

>  <compound_id>  (1246) 
62362

>  <target_id>  (1246) 
1

>  <reference_id>  (1246) 
35

>  <inspiration_ids>  (1246) 
[35, 93]

>  <energy_score>  (1246) 
250.2886011654943

>  <distance_score>  (1246) 
14.415516059557374

>  <path>  (1246) 
/opt/xchem-fragalysis-2/maxwin/BulkDock/SCRATCH/511021/C62362-P35/C62362-P35.minimised.mol

>  <scratch_subdir>  (1246) 
/opt/xchem-fragalysis-2/maxwin/BulkDock/SCRATCH/511021/C62362-P35

>  <fragmenstein_runtime>  (1246) 
53.222726345062256

>  <fragmenstein_outcome>  (1246) 
too moved

>  <fragmenstein_mode>  (1246) 
expansion

>  <fragmenstein_error>  (1246) 


$$$$
C62362-P93
     RDKit          3D

 35 38  0  0  0  0  0  0  0  0999 V2000
   -4.2784  -16.9566   29.2535 O   0  0  0  0  0  0  0  0  0  0  0  0
   -4.2496  -15.8520   29.7208 C   0  0  0  0  0  0  0  0  0  0  0  0
   -4.8236  -15.3307   30.9189 N   0  0  0  0  0  0  0  0  0  0  0  0
   -5.6503  -15.9110   31.8421 C   0  0  0  0  0  0  0  0  0  0  0  0
   -5.9405  -17.2498   31.7483 C   0  0  0  0  0  0  0  0  0  0  0  0
   -6.7776  -17.5848   32.7640 N   0  0  0  0  0  0  0  0  0  0  0  0
   -7.1008  -16.4761   33.4951 C   0  0  0  0  0  0  0  0  0  0  0  0
   -7.9494  -16.3675   34.5952 C   0  0  0  0  0  0  0  0  0  0  0  0
   -8.0887  -15.1061   35.1624 C   0  0  0  0  0  0  0  0  0  0  0  0
   -7.3993  -14.0047   34.6496 C   0  0  0  0  0  0  0  0  0  0  0  0
   -6.5445  -14.1359   33.5452 C   0  0  0  0  0  0  0  0  0  0  0  0
   -6.3868  -15.4015   32.9485 C   0  0  0  0  0  0  0  0  0  0  0  0
   -3.5783  -14.8877   28.8106 C   0  0  0  0  0  0  0  0  0  0  0  0
   -4.3873  -14.7586   27.6876 C   0  0  0  0  0  0  0  0  0  0  0  0
   -3.8692  -14.6391   26.4669 N   0  0  0  0  0  0  0  0  0  0  0  0
   -2.5094  -14.7258   26.4498 C   0  0  0  0  0  0  0  0  0  0  0  0
   -1.4973  -14.8636   27.5784 C   0  0  0  0  0  0  0  0  0  0  0  0
    0.3832  -14.4471   27.2479 N   0  0  0  0  0  0  0  0  0  0  0  0
    1.5818  -15.5926   27.9058 C   0  0  0  0  0  0  0  0  0  0  0  0
    2.8228  -15.0677   27.7224 C   0  0  0  0  0  0  0  0  0  0  0  0
    2.6212  -13.8893   26.9308 N   0  0  0  0  0  0  0  0  0  0  0  0
    1.3544  -13.6271   26.3922 C   0  0  0  0  0  0  0  0  0  0  0  0
   -2.1712  -14.8035   28.7984 N   0  0  0  0  0  0  0  0  0  0  0  0
   -4.6643  -14.3306   30.9528 H   0  0  0  0  0  0  0  0  0  0  0  0
   -5.6085  -18.0163   31.0585 H   0  0  0  0  0  0  0  0  0  0  0  0
   -7.1267  -18.5291   32.9094 H   0  0  0  0  0  0  0  0  0  0  0  0
   -8.4728  -17.2218   34.9994 H   0  0  0  0  0  0  0  0  0  0  0  0
   -8.7481  -14.9746   36.0173 H   0  0  0  0  0  0  0  0  0  0  0  0
   -7.5290  -13.0284   35.1109 H   0  0  0  0  0  0  0  0  0  0  0  0
   -6.0171  -13.2708   33.1571 H   0  0  0  0  0  0  0  0  0  0  0  0
   -5.4645  -14.8862   27.7300 H   0  0  0  0  0  0  0  0  0  0  0  0
   -2.1701  -14.5620   25.4344 H   0  0  0  0  0  0  0  0  0  0  0  0
    1.0859  -16.4337   28.3850 H   0  0  0  0  0  0  0  0  0  0  0  0
    3.8005  -15.4853   27.8523 H   0  0  0  0  0  0  0  0  0  0  0  0
    1.0265  -12.6943   26.0129 H   0  0  0  0  0  0  0  0  0  0  0  0
  1  2  2  0
  2  3  1  0
  3  4  1  0
  4  5  2  0
  5  6  1  0
  6  7  1  0
  7  8  2  0
  8  9  1  0
  9 10  2  0
 10 11  1  0
 11 12  2  0
  2 13  1  0
 13 14  2  0
 14 15  1  0
 15 16  2  0
 16 17  1  0
 17 18  1  0
 18 19  1  0
 19 20  2  0
 20 21  1  0
 21 22  2  0
 17 23  2  0
 12  4  1  0
 23 13  1  0
 12  7  1  0
 22 18  1  0
  3 24  1  0
  5 25  1  0
  6 26  1  0
  8 27  1  0
  9 28  1  0
 10 29  1  0
 11 30  1  0
 14 31  1  0
 16 32  1  0
 19 33  1  0
 20 34  1  0
 22 35  1  0
M  END
>  <Energy>  (1247) 
338.08368914010913

>  <compound_id>  (1247) 
62362

>  <target_id>  (1247) 
1

>  <reference_id>  (1247) 
93

>  <inspiration_ids>  (1247) 
[35, 93]

>  <energy_score>  (1247) 
182.0584387658373

>  <distance_score>  (1247) 
14.270785430561036

>  <path>  (1247) 
/opt/xchem-fragalysis-2/maxwin/BulkDock/SCRATCH/511021/C62362-P93/C62362-P93.minimised.mol

>  <scratch_subdir>  (1247) 
/opt/xchem-fragalysis-2/maxwin/BulkDock/SCRATCH/511021/C62362-P93

>  <fragmenstein_runtime>  (1247) 
55.59094953536987

>  <fragmenstein_outcome>  (1247) 
too moved

>  <fragmenstein_mode>  (1247) 
expansion

>  <fragmenstein_error>  (1247) 


$$$$
C62381-P35
     RDKit          3D

 44 46  0  0  0  0  0  0  0  0999 V2000
    2.5899   -8.8532   24.7005 C   0  0  0  0  0  0  0  0  0  0  0  0
    1.7608   -9.9812   25.3652 C   0  0  0  0  0  0  0  0  0  0  0  0
    1.8992  -11.3342   24.8167 N   0  0  0  0  0  0  0  0  0  0  0  0
    2.9305  -11.6453   23.9504 C   0  0  0  0  0  0  0  0  0  0  0  0
    2.7997  -12.8387   23.4381 N   0  0  0  0  0  0  0  0  0  0  0  0
    1.7081  -13.3790   24.0801 C   0  0  0  0  0  0  0  0  0  0  0  0
    1.1122  -12.5206   25.0060 C   0  0  0  0  0  0  0  0  0  0  0  0
   -0.4420  -12.8188   26.0541 S   0  0  0  0  0  0  0  0  0  0  0  0
   -0.2047  -12.0227   27.2394 O   0  0  0  0  0  0  0  0  0  0  0  0
   -1.4904  -12.4997   25.1122 O   0  0  0  0  0  0  0  0  0  0  0  0
   -0.7166  -14.4922   26.5590 N   0  0  0  0  0  0  0  0  0  0  0  0
   -2.0901  -14.8799   27.2916 C   0  0  0  0  0  0  0  0  0  0  0  0
   -2.3400  -13.9651   28.5073 C   0  0  0  0  0  0  0  0  0  0  0  0
   -2.7168  -12.6466   28.1283 O   0  0  0  0  0  0  0  0  0  0  0  0
   -2.0363  -16.3827   27.7982 C   0  0  0  0  0  0  0  0  0  0  0  0
   -3.0403  -17.3853   27.2466 C   0  0  0  0  0  0  0  0  0  0  0  0
   -4.2981  -17.1496   26.7262 C   0  0  0  0  0  0  0  0  0  0  0  0
   -4.8495  -18.3451   26.3313 N   0  0  0  0  0  0  0  0  0  0  0  0
   -4.0070  -19.3910   26.6341 C   0  0  0  0  0  0  0  0  0  0  0  0
   -4.1939  -20.7778   26.4817 C   0  0  0  0  0  0  0  0  0  0  0  0
   -3.1982  -21.6234   26.9761 C   0  0  0  0  0  0  0  0  0  0  0  0
   -2.0496  -21.0951   27.5646 C   0  0  0  0  0  0  0  0  0  0  0  0
   -1.8742  -19.7075   27.6938 C   0  0  0  0  0  0  0  0  0  0  0  0
   -2.8794  -18.8276   27.2366 C   0  0  0  0  0  0  0  0  0  0  0  0
    3.6631   -9.0038   24.8496 H   0  0  0  0  0  0  0  0  0  0  0  0
    2.3750   -8.8269   23.6313 H   0  0  0  0  0  0  0  0  0  0  0  0
    2.3192   -7.8884   25.1397 H   0  0  0  0  0  0  0  0  0  0  0  0
    2.0225  -10.0580   26.4261 H   0  0  0  0  0  0  0  0  0  0  0  0
    0.6953   -9.7376   25.2878 H   0  0  0  0  0  0  0  0  0  0  0  0
    3.7422  -10.9668   23.7224 H   0  0  0  0  0  0  0  0  0  0  0  0
    1.3838  -14.3855   23.8464 H   0  0  0  0  0  0  0  0  0  0  0  0
   -0.6604  -15.0682   25.7147 H   0  0  0  0  0  0  0  0  0  0  0  0
   -2.8683  -14.7418   26.5327 H   0  0  0  0  0  0  0  0  0  0  0  0
   -1.4593  -13.9119   29.1572 H   0  0  0  0  0  0  0  0  0  0  0  0
   -3.1722  -14.3576   29.1012 H   0  0  0  0  0  0  0  0  0  0  0  0
   -1.8995  -12.1063   28.1305 H   0  0  0  0  0  0  0  0  0  0  0  0
   -1.0340  -16.7743   27.5793 H   0  0  0  0  0  0  0  0  0  0  0  0
   -2.1363  -16.4118   28.8914 H   0  0  0  0  0  0  0  0  0  0  0  0
   -4.8614  -16.2348   26.5970 H   0  0  0  0  0  0  0  0  0  0  0  0
   -5.7926  -18.4584   25.9870 H   0  0  0  0  0  0  0  0  0  0  0  0
   -5.0924  -21.1776   26.0219 H   0  0  0  0  0  0  0  0  0  0  0  0
   -3.3121  -22.7003   26.8811 H   0  0  0  0  0  0  0  0  0  0  0  0
   -1.2743  -21.7649   27.9299 H   0  0  0  0  0  0  0  0  0  0  0  0
   -0.9752  -19.3186   28.1630 H   0  0  0  0  0  0  0  0  0  0  0  0
  1  2  1  0
  2  3  1  0
  3  4  1  0
  4  5  2  0
  5  6  1  0
  6  7  2  0
  7  8  1  0
  8  9  2  0
  8 10  2  0
  8 11  1  0
 11 12  1  0
 12 13  1  0
 13 14  1  0
 12 15  1  0
 15 16  1  0
 16 17  2  0
 17 18  1  0
 18 19  1  0
 19 20  2  0
 20 21  1  0
 21 22  2  0
 22 23  1  0
 23 24  2  0
  7  3  1  0
 24 16  1  0
 24 19  1  0
  1 25  1  0
  1 26  1  0
  1 27  1  0
  2 28  1  0
  2 29  1  0
  4 30  1  0
  6 31  1  0
 11 32  1  0
 12 33  1  0
 13 34  1  0
 13 35  1  0
 14 36  1  0
 15 37  1  0
 15 38  1  0
 17 39  1  0
 18 40  1  0
 20 41  1  0
 21 42  1  0
 22 43  1  0
 23 44  1  0
M  END
>  <Energy>  (1248) 
-24.297456882579411

>  <compound_id>  (1248) 
62381

>  <target_id>  (1248) 
1

>  <reference_id>  (1248) 
35

>  <inspiration_ids>  (1248) 
[35, 93]

>  <energy_score>  (1248) 
-31.234307748880155

>  <distance_score>  (1248) 
14.24407432294028

>  <path>  (1248) 
/opt/xchem-fragalysis-2/maxwin/BulkDock/SCRATCH/511021/C62381-P35/C62381-P35.minimised.mol

>  <scratch_subdir>  (1248) 
/opt/xchem-fragalysis-2/maxwin/BulkDock/SCRATCH/511021/C62381-P35

>  <fragmenstein_runtime>  (1248) 
30.30478048324585

>  <fragmenstein_outcome>  (1248) 
too moved

>  <fragmenstein_mode>  (1248) 
expansion

>  <fragmenstein_error>  (1248) 


$$$$
C62381-P93
     RDKit          3D

 44 46  0  0  0  0  0  0  0  0999 V2000
    3.8703   -9.4782   25.4323 C   0  0  0  0  0  0  0  0  0  0  0  0
    2.8127  -10.3882   26.1157 C   0  0  0  0  0  0  0  0  0  0  0  0
    1.7268  -10.9182   25.2830 N   0  0  0  0  0  0  0  0  0  0  0  0
    1.5699  -10.4872   23.9802 C   0  0  0  0  0  0  0  0  0  0  0  0
    0.6365  -11.1440   23.3489 N   0  0  0  0  0  0  0  0  0  0  0  0
    0.1083  -11.9994   24.2916 C   0  0  0  0  0  0  0  0  0  0  0  0
    0.7037  -11.8956   25.5497 C   0  0  0  0  0  0  0  0  0  0  0  0
    0.3473  -12.9167   27.1044 S   0  0  0  0  0  0  0  0  0  0  0  0
    0.5936  -11.9685   28.1682 O   0  0  0  0  0  0  0  0  0  0  0  0
    1.1663  -14.0915   26.9164 O   0  0  0  0  0  0  0  0  0  0  0  0
   -1.3362  -13.4637   27.3454 N   0  0  0  0  0  0  0  0  0  0  0  0
   -1.5402  -14.9290   28.0145 C   0  0  0  0  0  0  0  0  0  0  0  0
   -1.6312  -15.8985   26.8214 C   0  0  0  0  0  0  0  0  0  0  0  0
   -2.5764  -15.4037   25.8681 O   0  0  0  0  0  0  0  0  0  0  0  0
   -2.8248  -14.9779   28.9066 C   0  0  0  0  0  0  0  0  0  0  0  0
   -3.2565  -16.2451   29.6470 C   0  0  0  0  0  0  0  0  0  0  0  0
   -4.5207  -16.3553   30.2063 C   0  0  0  0  0  0  0  0  0  0  0  0
   -4.6743  -17.5816   30.7851 N   0  0  0  0  0  0  0  0  0  0  0  0
   -3.5031  -18.2910   30.6741 C   0  0  0  0  0  0  0  0  0  0  0  0
   -3.2033  -19.5890   31.1196 C   0  0  0  0  0  0  0  0  0  0  0  0
   -1.9286  -20.0878   30.8740 C   0  0  0  0  0  0  0  0  0  0  0  0
   -0.9853  -19.3055   30.2120 C   0  0  0  0  0  0  0  0  0  0  0  0
   -1.2992  -18.0109   29.7647 C   0  0  0  0  0  0  0  0  0  0  0  0
   -2.5910  -17.4820   29.9798 C   0  0  0  0  0  0  0  0  0  0  0  0
    4.3377   -9.9993   24.5923 H   0  0  0  0  0  0  0  0  0  0  0  0
    3.4222   -8.5463   25.0750 H   0  0  0  0  0  0  0  0  0  0  0  0
    4.6511   -9.2311   26.1569 H   0  0  0  0  0  0  0  0  0  0  0  0
    3.3125  -11.2652   26.5419 H   0  0  0  0  0  0  0  0  0  0  0  0
    2.3258   -9.8380   26.9282 H   0  0  0  0  0  0  0  0  0  0  0  0
    2.1652   -9.6995   23.5419 H   0  0  0  0  0  0  0  0  0  0  0  0
   -0.6943  -12.6773   24.0256 H   0  0  0  0  0  0  0  0  0  0  0  0
   -1.7497  -12.7606   27.9680 H   0  0  0  0  0  0  0  0  0  0  0  0
   -0.6641  -15.1378   28.6369 H   0  0  0  0  0  0  0  0  0  0  0  0
   -1.9348  -16.9051   27.1156 H   0  0  0  0  0  0  0  0  0  0  0  0
   -0.6667  -15.9740   26.3104 H   0  0  0  0  0  0  0  0  0  0  0  0
   -2.4155  -14.4408   25.8300 H   0  0  0  0  0  0  0  0  0  0  0  0
   -3.6729  -14.6541   28.2866 H   0  0  0  0  0  0  0  0  0  0  0  0
   -2.7117  -14.1961   29.6712 H   0  0  0  0  0  0  0  0  0  0  0  0
   -5.3281  -15.6396   30.2136 H   0  0  0  0  0  0  0  0  0  0  0  0
   -5.5261  -17.9293   31.2100 H   0  0  0  0  0  0  0  0  0  0  0  0
   -3.9428  -20.1920   31.6312 H   0  0  0  0  0  0  0  0  0  0  0  0
   -1.6629  -21.0837   31.2200 H   0  0  0  0  0  0  0  0  0  0  0  0
    0.0132  -19.7012   30.0393 H   0  0  0  0  0  0  0  0  0  0  0  0
   -0.5350  -17.4341   29.2549 H   0  0  0  0  0  0  0  0  0  0  0  0
  1  2  1  0
  2  3  1  0
  3  4  1  0
  4  5  2  0
  5  6  1  0
  6  7  2  0
  7  8  1  0
  8  9  2  0
  8 10  2  0
  8 11  1  0
 11 12  1  0
 12 13  1  0
 13 14  1  0
 12 15  1  0
 15 16  1  0
 16 17  2  0
 17 18  1  0
 18 19  1  0
 19 20  2  0
 20 21  1  0
 21 22  2  0
 22 23  1  0
 23 24  2  0
  7  3  1  0
 24 16  1  0
 24 19  1  0
  1 25  1  0
  1 26  1  0
  1 27  1  0
  2 28  1  0
  2 29  1  0
  4 30  1  0
  6 31  1  0
 11 32  1  0
 12 33  1  0
 13 34  1  0
 13 35  1  0
 14 36  1  0
 15 37  1  0
 15 38  1  0
 17 39  1  0
 18 40  1  0
 20 41  1  0
 21 42  1  0
 22 43  1  0
 23 44  1  0
M  END
>  <Energy>  (1249) 
-22.249124070083472

>  <compound_id>  (1249) 
62381

>  <target_id>  (1249) 
1

>  <reference_id>  (1249) 
93

>  <inspiration_ids>  (1249) 
[35, 93]

>  <energy_score>  (1249) 
-29.1859749363785

>  <distance_score>  (1249) 
14.248892329310554

>  <path>  (1249) 
/opt/xchem-fragalysis-2/maxwin/BulkDock/SCRATCH/511021/C62381-P93/C62381-P93.minimised.mol

>  <scratch_subdir>  (1249) 
/opt/xchem-fragalysis-2/maxwin/BulkDock/SCRATCH/511021/C62381-P93

>  <fragmenstein_runtime>  (1249) 
28.71720004081726

>  <fragmenstein_outcome>  (1249) 
too moved

>  <fragmenstein_mode>  (1249) 
expansion

>  <fragmenstein_error>  (1249) 


$$$$
C62383-P35
     RDKit          3D

 38 40  0  0  0  0  0  0  0  0999 V2000
    9.3367   -5.7330   21.8049 C   0  0  0  0  0  0  0  0  0  0  0  0
   10.0107   -5.8035   23.1894 C   0  0  0  0  0  0  0  0  0  0  0  0
   11.1316   -4.7263   23.1841 C   0  0  0  0  0  0  0  0  0  0  0  0
   10.7130   -7.1455   23.3867 C   0  0  0  0  0  0  0  0  0  0  0  0
    8.9300   -5.5008   24.2496 C   0  0  0  0  0  0  0  0  0  0  0  0
    8.5317   -4.1666   24.2339 N   0  0  0  0  0  0  0  0  0  0  0  0
    7.5827   -4.0573   25.1190 C   0  0  0  0  0  0  0  0  0  0  0  0
    7.2925   -5.2567   25.6872 N   0  0  0  0  0  0  0  0  0  0  0  0
    8.1534   -6.2180   25.2053 C   0  0  0  0  0  0  0  0  0  0  0  0
    8.0430   -7.6517   25.7685 C   0  0  0  0  0  0  0  0  0  0  0  0
    6.9540   -7.8352   26.8199 O   0  0  0  0  0  0  0  0  0  0  0  0
    6.9920   -9.0941   27.4448 C   0  0  0  0  0  0  0  0  0  0  0  0
    7.8871   -9.8978   27.1955 O   0  0  0  0  0  0  0  0  0  0  0  0
    5.8716   -9.5028   28.3724 C   0  0  0  0  0  0  0  0  0  0  0  0
    4.7332   -8.9308   28.9942 C   0  0  0  0  0  0  0  0  0  0  0  0
    3.9700   -9.9921   29.5504 C   0  0  0  0  0  0  0  0  0  0  0  0
    2.6819  -10.1321   30.0991 C   0  0  0  0  0  0  0  0  0  0  0  0
    2.4451  -11.4764   30.3942 C   0  0  0  0  0  0  0  0  0  0  0  0
    3.8272  -12.4758   30.0209 S   0  0  0  0  0  0  0  0  0  0  0  0
    4.6578  -11.1328   29.4592 C   0  0  0  0  0  0  0  0  0  0  0  0
    5.8370  -10.8543   28.8248 N   0  0  0  0  0  0  0  0  0  0  0  0
    8.4310   -6.3385   21.7548 H   0  0  0  0  0  0  0  0  0  0  0  0
    9.0262   -4.7097   21.5664 H   0  0  0  0  0  0  0  0  0  0  0  0
   10.0177   -6.0560   21.0179 H   0  0  0  0  0  0  0  0  0  0  0  0
   11.6722   -4.7258   24.1381 H   0  0  0  0  0  0  0  0  0  0  0  0
   10.7298   -3.7207   23.0502 H   0  0  0  0  0  0  0  0  0  0  0  0
   11.8581   -4.9078   22.3836 H   0  0  0  0  0  0  0  0  0  0  0  0
   10.0041   -7.9738   23.4571 H   0  0  0  0  0  0  0  0  0  0  0  0
   11.2875   -7.1536   24.3210 H   0  0  0  0  0  0  0  0  0  0  0  0
   11.4061   -7.3666   22.5672 H   0  0  0  0  0  0  0  0  0  0  0  0
    7.0562   -3.1495   25.3795 H   0  0  0  0  0  0  0  0  0  0  0  0
    6.5747   -5.4234   26.3779 H   0  0  0  0  0  0  0  0  0  0  0  0
    9.0017   -7.9036   26.2351 H   0  0  0  0  0  0  0  0  0  0  0  0
    7.8187   -8.3434   24.9514 H   0  0  0  0  0  0  0  0  0  0  0  0
    4.4580   -7.8859   28.9281 H   0  0  0  0  0  0  0  0  0  0  0  0
    1.9564   -9.3454   30.2595 H   0  0  0  0  0  0  0  0  0  0  0  0
    1.5567  -11.9275   30.8153 H   0  0  0  0  0  0  0  0  0  0  0  0
    6.5498  -11.5197   28.5608 H   0  0  0  0  0  0  0  0  0  0  0  0
  1  2  1  0
  2  3  1  0
  2  4  1  0
  2  5  1  0
  5  6  1  0
  6  7  2  0
  7  8  1  0
  8  9  1  0
  9 10  1  0
 10 11  1  0
 11 12  1  0
 12 13  2  0
 12 14  1  0
 14 15  2  0
 15 16  1  0
 16 17  1  0
 17 18  2  0
 18 19  1  0
 19 20  1  0
 20 21  1  0
  9  5  2  0
 21 14  1  0
 20 16  2  0
  1 22  1  0
  1 23  1  0
  1 24  1  0
  3 25  1  0
  3 26  1  0
  3 27  1  0
  4 28  1  0
  4 29  1  0
  4 30  1  0
  7 31  1  0
  8 32  1  0
 10 33  1  0
 10 34  1  0
 15 35  1  0
 17 36  1  0
 18 37  1  0
 21 38  1  0
M  END
>  <Energy>  (1250) 
24.623437590851012

>  <compound_id>  (1250) 
62383

>  <target_id>  (1250) 
1

>  <reference_id>  (1250) 
35

>  <inspiration_ids>  (1250) 
[35, 93]

>  <energy_score>  (1250) 
-41.05914016437072

>  <distance_score>  (1250) 
15.845695695422755

>  <path>  (1250) 
/opt/xchem-fragalysis-2/maxwin/BulkDock/SCRATCH/511021/C62383-P35/C62383-P35.minimised.mol

>  <scratch_subdir>  (1250) 
/opt/xchem-fragalysis-2/maxwin/BulkDock/SCRATCH/511021/C62383-P35

>  <fragmenstein_runtime>  (1250) 
17.555638551712036

>  <fragmenstein_outcome>  (1250) 
too moved

>  <fragmenstein_mode>  (1250) 
expansion

>  <fragmenstein_error>  (1250) 


$$$$
C62383-P93
     RDKit          3D

 38 40  0  0  0  0  0  0  0  0999 V2000
    5.4967  -10.8326   14.6633 C   0  0  0  0  0  0  0  0  0  0  0  0
    6.3560  -10.5692   15.9083 C   0  0  0  0  0  0  0  0  0  0  0  0
    7.8449  -10.4794   15.4713 C   0  0  0  0  0  0  0  0  0  0  0  0
    5.9806   -9.1832   16.4953 C   0  0  0  0  0  0  0  0  0  0  0  0
    6.1504  -11.6642   16.9826 C   0  0  0  0  0  0  0  0  0  0  0  0
    7.0334  -11.5573   18.0563 N   0  0  0  0  0  0  0  0  0  0  0  0
    6.6961  -12.5074   18.8829 C   0  0  0  0  0  0  0  0  0  0  0  0
    5.6138  -13.2117   18.4443 N   0  0  0  0  0  0  0  0  0  0  0  0
    5.2659  -12.7714   17.1847 C   0  0  0  0  0  0  0  0  0  0  0  0
    4.1706  -13.5301   16.3986 C   0  0  0  0  0  0  0  0  0  0  0  0
    3.1152  -14.2769   17.2125 O   0  0  0  0  0  0  0  0  0  0  0  0
    3.0404  -15.6749   17.1002 C   0  0  0  0  0  0  0  0  0  0  0  0
    3.9455  -16.3276   16.5905 O   0  0  0  0  0  0  0  0  0  0  0  0
    1.8162  -16.3651   17.6594 C   0  0  0  0  0  0  0  0  0  0  0  0
    0.4403  -16.0494   17.8013 C   0  0  0  0  0  0  0  0  0  0  0  0
   -0.1549  -17.0528   18.5992 C   0  0  0  0  0  0  0  0  0  0  0  0
   -1.4000  -17.2330   19.2259 C   0  0  0  0  0  0  0  0  0  0  0  0
   -1.3937  -18.4456   19.9149 C   0  0  0  0  0  0  0  0  0  0  0  0
    0.1192  -19.3034   19.7083 S   0  0  0  0  0  0  0  0  0  0  0  0
    0.7187  -18.0440   18.7830 C   0  0  0  0  0  0  0  0  0  0  0  0
    1.8730  -17.7144   18.1161 N   0  0  0  0  0  0  0  0  0  0  0  0
    4.4281  -10.8087   14.9032 H   0  0  0  0  0  0  0  0  0  0  0  0
    5.6737  -10.0741   13.8920 H   0  0  0  0  0  0  0  0  0  0  0  0
    5.7203  -11.8117   14.2245 H   0  0  0  0  0  0  0  0  0  0  0  0
    8.1703  -11.4231   15.0182 H   0  0  0  0  0  0  0  0  0  0  0  0
    8.5074  -10.2852   16.3207 H   0  0  0  0  0  0  0  0  0  0  0  0
    7.9957   -9.6829   14.7349 H   0  0  0  0  0  0  0  0  0  0  0  0
    4.9098   -9.1434   16.7292 H   0  0  0  0  0  0  0  0  0  0  0  0
    6.1933   -8.3743   15.7878 H   0  0  0  0  0  0  0  0  0  0  0  0
    6.5101   -8.9832   17.4319 H   0  0  0  0  0  0  0  0  0  0  0  0
    7.1724  -12.7349   19.8218 H   0  0  0  0  0  0  0  0  0  0  0  0
    5.1341  -13.9399   18.9684 H   0  0  0  0  0  0  0  0  0  0  0  0
    4.6480  -14.2265   15.7021 H   0  0  0  0  0  0  0  0  0  0  0  0
    3.5969  -12.8055   15.8141 H   0  0  0  0  0  0  0  0  0  0  0  0
   -0.0170  -15.1341   17.4471 H   0  0  0  0  0  0  0  0  0  0  0  0
   -2.2392  -16.5509   19.2048 H   0  0  0  0  0  0  0  0  0  0  0  0
   -2.1831  -18.8882   20.5063 H   0  0  0  0  0  0  0  0  0  0  0  0
    2.7114  -18.2786   18.0711 H   0  0  0  0  0  0  0  0  0  0  0  0
  1  2  1  0
  2  3  1  0
  2  4  1  0
  2  5  1  0
  5  6  1  0
  6  7  2  0
  7  8  1  0
  8  9  1  0
  9 10  1  0
 10 11  1  0
 11 12  1  0
 12 13  2  0
 12 14  1  0
 14 15  2  0
 15 16  1  0
 16 17  1  0
 17 18  2  0
 18 19  1  0
 19 20  1  0
 20 21  1  0
  9  5  2  0
 21 14  1  0
 20 16  2  0
  1 22  1  0
  1 23  1  0
  1 24  1  0
  3 25  1  0
  3 26  1  0
  3 27  1  0
  4 28  1  0
  4 29  1  0
  4 30  1  0
  7 31  1  0
  8 32  1  0
 10 33  1  0
 10 34  1  0
 15 35  1  0
 17 36  1  0
 18 37  1  0
 21 38  1  0
M  END
>  <Energy>  (1251) 
27.94574800341508

>  <compound_id>  (1251) 
62383

>  <target_id>  (1251) 
1

>  <reference_id>  (1251) 
93

>  <inspiration_ids>  (1251) 
[35, 93]

>  <energy_score>  (1251) 
-37.73682975180898

>  <distance_score>  (1251) 
16.0851950707636

>  <path>  (1251) 
/opt/xchem-fragalysis-2/maxwin/BulkDock/SCRATCH/511021/C62383-P93/C62383-P93.minimised.mol

>  <scratch_subdir>  (1251) 
/opt/xchem-fragalysis-2/maxwin/BulkDock/SCRATCH/511021/C62383-P93

>  <fragmenstein_runtime>  (1251) 
20.75565505027771

>  <fragmenstein_outcome>  (1251) 
too moved

>  <fragmenstein_mode>  (1251) 
expansion

>  <fragmenstein_error>  (1251) 


$$$$
C62385-P35
     RDKit          3D

 50 52  0  0  0  0  0  0  0  0999 V2000
    2.1804  -12.0522   23.7930 C   0  0  0  0  0  0  0  0  0  0  0  0
    3.0279  -13.1741   23.6146 C   0  0  0  0  0  0  0  0  0  0  0  0
    2.6534  -14.5037   23.0665 C   0  0  0  0  0  0  0  0  0  0  0  0
    0.9871  -14.9812   22.0852 N   0  0  0  0  0  0  0  0  0  0  0  0
    2.2615  -14.8613   20.5334 C   0  0  0  0  0  0  0  0  0  0  0  0
    2.9142  -14.0947   19.1218 C   0  0  0  0  0  0  0  0  0  0  0  0
    3.7325  -12.8707   19.0667 N   0  0  0  0  0  0  0  0  0  0  0  0
    5.1742  -12.6727   19.2074 C   0  0  0  0  0  0  0  0  0  0  0  0
    6.0463  -13.4493   19.4823 O   0  0  0  0  0  0  0  0  0  0  0  0
    5.6300  -11.1828   19.0773 C   0  0  0  0  0  0  0  0  0  0  0  0
    4.8578  -10.1520   18.4953 C   0  0  0  0  0  0  0  0  0  0  0  0
    5.1614   -8.7941   18.6651 C   0  0  0  0  0  0  0  0  0  0  0  0
    6.2802   -8.3976   19.3963 C   0  0  0  0  0  0  0  0  0  0  0  0
    7.1886   -9.3806   19.8290 C   0  0  0  0  0  0  0  0  0  0  0  0
    8.4547   -9.3201   20.4832 C   0  0  0  0  0  0  0  0  0  0  0  0
    8.9030  -10.6095   20.6272 C   0  0  0  0  0  0  0  0  0  0  0  0
    7.9287  -11.4491   20.1491 N   0  0  0  0  0  0  0  0  0  0  0  0
    6.8599  -10.7323   19.6439 C   0  0  0  0  0  0  0  0  0  0  0  0
   -0.1922  -14.1592   23.3041 C   0  0  0  0  0  0  0  0  0  0  0  0
   -1.4390  -15.1614   24.3777 C   0  0  0  0  0  0  0  0  0  0  0  0
   -2.2311  -16.6010   25.0096 C   0  0  0  0  0  0  0  0  0  0  0  0
   -3.3040  -16.2553   25.3888 N   0  0  0  0  0  0  0  0  0  0  0  0
   -2.9933  -15.3746   24.5981 C   0  0  0  0  0  0  0  0  0  0  0  0
   -2.1511  -14.5963   25.5243 N   0  0  0  0  0  0  0  0  0  0  0  0
   -2.0387  -15.1815   27.1985 C   0  0  0  0  0  0  0  0  0  0  0  0
    1.8338  -12.0144   24.7933 H   0  0  0  0  0  0  0  0  0  0  0  0
    1.3841  -11.7331   23.1273 H   0  0  0  0  0  0  0  0  0  0  0  0
    2.8185  -11.2922   23.4287 H   0  0  0  0  0  0  0  0  0  0  0  0
    3.5276  -12.6582   22.7950 H   0  0  0  0  0  0  0  0  0  0  0  0
    3.6557  -13.3999   24.4575 H   0  0  0  0  0  0  0  0  0  0  0  0
    3.1728  -14.3361   22.1483 H   0  0  0  0  0  0  0  0  0  0  0  0
    3.3622  -15.3255   23.2766 H   0  0  0  0  0  0  0  0  0  0  0  0
    1.8898  -15.8038   20.0452 H   0  0  0  0  0  0  0  0  0  0  0  0
    3.2745  -15.2296   20.8164 H   0  0  0  0  0  0  0  0  0  0  0  0
    3.5709  -14.8709   18.7020 H   0  0  0  0  0  0  0  0  0  0  0  0
    2.1459  -13.9491   18.3539 H   0  0  0  0  0  0  0  0  0  0  0  0
    3.3095  -12.0105   18.7434 H   0  0  0  0  0  0  0  0  0  0  0  0
    3.9590  -10.3836   17.9291 H   0  0  0  0  0  0  0  0  0  0  0  0
    4.4932   -8.0401   18.2528 H   0  0  0  0  0  0  0  0  0  0  0  0
    6.4745   -7.3432   19.5652 H   0  0  0  0  0  0  0  0  0  0  0  0
    8.9871   -8.4314   20.7939 H   0  0  0  0  0  0  0  0  0  0  0  0
    9.8141  -11.0123   21.0496 H   0  0  0  0  0  0  0  0  0  0  0  0
    7.9590  -12.4639   20.1459 H   0  0  0  0  0  0  0  0  0  0  0  0
   -0.3332  -13.2220   22.8925 H   0  0  0  0  0  0  0  0  0  0  0  0
    0.5061  -14.1359   24.1216 H   0  0  0  0  0  0  0  0  0  0  0  0
   -1.8583  -17.5462   25.4575 H   0  0  0  0  0  0  0  0  0  0  0  0
   -3.4920  -15.0890   23.6718 H   0  0  0  0  0  0  0  0  0  0  0  0
   -1.1228  -15.0179   27.7139 H   0  0  0  0  0  0  0  0  0  0  0  0
   -2.5697  -14.5182   27.7706 H   0  0  0  0  0  0  0  0  0  0  0  0
   -2.2820  -16.2459   27.2414 H   0  0  0  0  0  0  0  0  0  0  0  0
  1  2  1  0
  2  3  1  0
  3  4  1  0
  4  5  1  0
  5  6  1  0
  6  7  1  0
  7  8  1  0
  8  9  2  0
  8 10  1  0
 10 11  2  0
 11 12  1  0
 12 13  2  0
 13 14  1  0
 14 15  1  0
 15 16  2  0
 16 17  1  0
 17 18  1  0
  4 19  1  0
 19 20  1  0
 20 21  2  0
 21 22  1  0
 22 23  2  0
 23 24  1  0
 24 25  1  0
 18 10  1  0
 24 20  1  0
 18 14  2  0
  1 26  1  0
  1 27  1  0
  1 28  1  0
  2 29  1  0
  2 30  1  0
  3 31  1  0
  3 32  1  0
  5 33  1  0
  5 34  1  0
  6 35  1  0
  6 36  1  0
  7 37  1  0
 11 38  1  0
 12 39  1  0
 13 40  1  0
 15 41  1  0
 16 42  1  0
 17 43  1  0
 19 44  1  0
 19 45  1  0
 21 46  1  0
 23 47  1  0
 25 48  1  0
 25 49  1  0
 25 50  1  0
M  END
>  <Energy>  (1252) 
758.50692355142348

>  <compound_id>  (1252) 
62385

>  <target_id>  (1252) 
1

>  <reference_id>  (1252) 
35

>  <inspiration_ids>  (1252) 
[35, 93]

>  <energy_score>  (1252) 
687.9771497097612

>  <distance_score>  (1252) 
14.262642299926744

>  <path>  (1252) 
/opt/xchem-fragalysis-2/maxwin/BulkDock/SCRATCH/511021/C62385-P35/C62385-P35.minimised.mol

>  <scratch_subdir>  (1252) 
/opt/xchem-fragalysis-2/maxwin/BulkDock/SCRATCH/511021/C62385-P35

>  <fragmenstein_runtime>  (1252) 
40.558475494384766

>  <fragmenstein_outcome>  (1252) 
too moved

>  <fragmenstein_mode>  (1252) 
expansion

>  <fragmenstein_error>  (1252) 


$$$$
C62385-P93
     RDKit          3D

 50 52  0  0  0  0  0  0  0  0999 V2000
   -2.1332   -5.9745   18.3881 C   0  0  0  0  0  0  0  0  0  0  0  0
   -1.2699   -6.9091   17.5524 C   0  0  0  0  0  0  0  0  0  0  0  0
   -1.0999   -8.3007   18.1847 C   0  0  0  0  0  0  0  0  0  0  0  0
   -0.5667   -8.3087   19.5678 N   0  0  0  0  0  0  0  0  0  0  0  0
    0.8723   -7.7657   19.5500 C   0  0  0  0  0  0  0  0  0  0  0  0
    1.5635   -7.6201   20.9233 C   0  0  0  0  0  0  0  0  0  0  0  0
    2.8561   -6.9244   20.9277 N   0  0  0  0  0  0  0  0  0  0  0  0
    4.1539   -7.3334   20.4450 C   0  0  0  0  0  0  0  0  0  0  0  0
    4.4914   -8.3147   19.8449 O   0  0  0  0  0  0  0  0  0  0  0  0
    5.2888   -6.3829   20.8223 C   0  0  0  0  0  0  0  0  0  0  0  0
    5.1028   -5.0137   21.0782 C   0  0  0  0  0  0  0  0  0  0  0  0
    6.1364   -4.2117   21.5696 C   0  0  0  0  0  0  0  0  0  0  0  0
    7.4247   -4.7193   21.7532 C   0  0  0  0  0  0  0  0  0  0  0  0
    7.6825   -6.0521   21.4138 C   0  0  0  0  0  0  0  0  0  0  0  0
    8.8505   -6.8576   21.4732 C   0  0  0  0  0  0  0  0  0  0  0  0
    8.4922   -8.1239   21.0766 C   0  0  0  0  0  0  0  0  0  0  0  0
    7.1604   -8.1043   20.7485 N   0  0  0  0  0  0  0  0  0  0  0  0
    6.6249   -6.8486   20.9585 C   0  0  0  0  0  0  0  0  0  0  0  0
   -0.6615   -9.6916   20.1548 C   0  0  0  0  0  0  0  0  0  0  0  0
   -1.9808  -10.4803   19.9872 C   0  0  0  0  0  0  0  0  0  0  0  0
   -2.2566  -11.5707   19.1670 C   0  0  0  0  0  0  0  0  0  0  0  0
   -3.5555  -11.9961   19.2560 N   0  0  0  0  0  0  0  0  0  0  0  0
   -4.1201  -11.1057   20.0310 C   0  0  0  0  0  0  0  0  0  0  0  0
   -3.1969  -10.2693   20.6038 N   0  0  0  0  0  0  0  0  0  0  0  0
   -3.5444   -9.3085   21.6133 C   0  0  0  0  0  0  0  0  0  0  0  0
   -1.6604   -5.7427   19.3473 H   0  0  0  0  0  0  0  0  0  0  0  0
   -3.1144   -6.4182   18.5850 H   0  0  0  0  0  0  0  0  0  0  0  0
   -2.2891   -5.0306   17.8561 H   0  0  0  0  0  0  0  0  0  0  0  0
   -0.2999   -6.4413   17.3554 H   0  0  0  0  0  0  0  0  0  0  0  0
   -1.7457   -7.0362   16.5719 H   0  0  0  0  0  0  0  0  0  0  0  0
   -2.1021   -8.7430   18.1702 H   0  0  0  0  0  0  0  0  0  0  0  0
   -0.4724   -8.9194   17.5302 H   0  0  0  0  0  0  0  0  0  0  0  0
    1.4890   -8.3952   18.8962 H   0  0  0  0  0  0  0  0  0  0  0  0
    0.8578   -6.7624   19.1126 H   0  0  0  0  0  0  0  0  0  0  0  0
    0.9132   -7.0694   21.6112 H   0  0  0  0  0  0  0  0  0  0  0  0
    1.7466   -8.6034   21.3395 H   0  0  0  0  0  0  0  0  0  0  0  0
    2.9568   -6.0759   21.4655 H   0  0  0  0  0  0  0  0  0  0  0  0
    4.1372   -4.5421   20.9132 H   0  0  0  0  0  0  0  0  0  0  0  0
    5.9356   -3.1658   21.7935 H   0  0  0  0  0  0  0  0  0  0  0  0
    8.2178   -4.0964   22.1493 H   0  0  0  0  0  0  0  0  0  0  0  0
    9.8367   -6.5464   21.7956 H   0  0  0  0  0  0  0  0  0  0  0  0
    9.0659   -9.0376   20.9903 H   0  0  0  0  0  0  0  0  0  0  0  0
    6.6114   -8.8899   20.4141 H   0  0  0  0  0  0  0  0  0  0  0  0
   -0.4522   -9.6299   21.2285 H   0  0  0  0  0  0  0  0  0  0  0  0
    0.1249  -10.3037   19.6987 H   0  0  0  0  0  0  0  0  0  0  0  0
   -1.5766  -12.0273   18.4613 H   0  0  0  0  0  0  0  0  0  0  0  0
   -5.1742  -11.0354   20.2633 H   0  0  0  0  0  0  0  0  0  0  0  0
   -3.8510   -8.3900   21.1042 H   0  0  0  0  0  0  0  0  0  0  0  0
   -4.3675   -9.6683   22.2296 H   0  0  0  0  0  0  0  0  0  0  0  0
   -2.6654   -9.0984   22.2237 H   0  0  0  0  0  0  0  0  0  0  0  0
  1  2  1  0
  2  3  1  0
  3  4  1  0
  4  5  1  0
  5  6  1  0
  6  7  1  0
  7  8  1  0
  8  9  2  0
  8 10  1  0
 10 11  2  0
 11 12  1  0
 12 13  2  0
 13 14  1  0
 14 15  1  0
 15 16  2  0
 16 17  1  0
 17 18  1  0
  4 19  1  0
 19 20  1  0
 20 21  2  0
 21 22  1  0
 22 23  2  0
 23 24  1  0
 24 25  1  0
 18 10  1  0
 24 20  1  0
 18 14  2  0
  1 26  1  0
  1 27  1  0
  1 28  1  0
  2 29  1  0
  2 30  1  0
  3 31  1  0
  3 32  1  0
  5 33  1  0
  5 34  1  0
  6 35  1  0
  6 36  1  0
  7 37  1  0
 11 38  1  0
 12 39  1  0
 13 40  1  0
 15 41  1  0
 16 42  1  0
 17 43  1  0
 19 44  1  0
 19 45  1  0
 21 46  1  0
 23 47  1  0
 25 48  1  0
 25 49  1  0
 25 50  1  0
M  END
>  <Energy>  (1253) 
35.9033236759118

>  <compound_id>  (1253) 
62385

>  <target_id>  (1253) 
1

>  <reference_id>  (1253) 
93

>  <inspiration_ids>  (1253) 
[35, 93]

>  <energy_score>  (1253) 
-34.626450165744586

>  <distance_score>  (1253) 
15.369938201781878

>  <path>  (1253) 
/opt/xchem-fragalysis-2/maxwin/BulkDock/SCRATCH/511021/C62385-P93/C62385-P93.minimised.mol

>  <scratch_subdir>  (1253) 
/opt/xchem-fragalysis-2/maxwin/BulkDock/SCRATCH/511021/C62385-P93

>  <fragmenstein_runtime>  (1253) 
72.79114985466003

>  <fragmenstein_outcome>  (1253) 
too moved

>  <fragmenstein_mode>  (1253) 
expansion

>  <fragmenstein_error>  (1253) 


$$$$
C62386-P35
     RDKit          3D

 42 44  0  0  0  0  0  0  0  0999 V2000
   -1.6550  -16.0288   28.5953 C   0  0  0  0  0  0  0  0  0  0  0  0
   -2.1170  -15.2974   27.2149 O   0  0  0  0  0  0  0  0  0  0  0  0
   -3.0772  -15.7431   26.1787 C   0  0  0  0  0  0  0  0  0  0  0  0
   -4.3780  -15.9221   26.2423 O   0  0  0  0  0  0  0  0  0  0  0  0
   -2.5900  -16.1669   24.8978 C   0  0  0  0  0  0  0  0  0  0  0  0
   -3.0778  -17.1308   26.7333 C   0  0  0  0  0  0  0  0  0  0  0  0
   -4.1167  -16.0996   28.2304 C   0  0  0  0  0  0  0  0  0  0  0  0
   -3.8971  -14.6549   28.4081 C   0  0  0  0  0  0  0  0  0  0  0  0
   -5.0011  -13.8719   28.6907 N   0  0  0  0  0  0  0  0  0  0  0  0
   -5.2492  -14.3040   29.9080 C   0  0  0  0  0  0  0  0  0  0  0  0
   -5.5951  -13.5188   31.0302 C   0  0  0  0  0  0  0  0  0  0  0  0
   -5.7492  -14.1194   32.2504 C   0  0  0  0  0  0  0  0  0  0  0  0
   -5.7314  -15.4725   32.2450 C   0  0  0  0  0  0  0  0  0  0  0  0
   -5.5322  -16.1792   31.0162 C   0  0  0  0  0  0  0  0  0  0  0  0
   -5.0657  -15.6881   29.7038 C   0  0  0  0  0  0  0  0  0  0  0  0
   -1.3188  -15.4086   23.4605 N   0  0  0  0  0  0  0  0  0  0  0  0
   -0.4330  -16.3003   21.8092 C   0  0  0  0  0  0  0  0  0  0  0  0
   -0.7634  -17.4831   21.5456 O   0  0  0  0  0  0  0  0  0  0  0  0
    0.9399  -15.8137   20.6097 C   0  0  0  0  0  0  0  0  0  0  0  0
    2.3777  -14.7564   20.0697 N   0  0  0  0  0  0  0  0  0  0  0  0
    3.4340  -13.4879   20.6415 C   0  0  0  0  0  0  0  0  0  0  0  0
    4.2703  -13.1815   19.4257 C   0  0  0  0  0  0  0  0  0  0  0  0
    3.7440  -13.8527   18.2427 N   0  0  0  0  0  0  0  0  0  0  0  0
    2.7745  -14.7240   18.5664 C   0  0  0  0  0  0  0  0  0  0  0  0
   -2.2552  -16.8829   28.9114 H   0  0  0  0  0  0  0  0  0  0  0  0
   -1.6827  -15.2837   29.3888 H   0  0  0  0  0  0  0  0  0  0  0  0
   -0.6748  -16.4827   28.4952 H   0  0  0  0  0  0  0  0  0  0  0  0
   -3.5131  -16.2449   24.2883 H   0  0  0  0  0  0  0  0  0  0  0  0
   -3.8078  -17.9394   26.4655 H   0  0  0  0  0  0  0  0  0  0  0  0
   -2.2067  -17.6932   27.1221 H   0  0  0  0  0  0  0  0  0  0  0  0
   -3.1588  -13.9805   28.0672 H   0  0  0  0  0  0  0  0  0  0  0  0
   -5.0469  -12.8871   28.4567 H   0  0  0  0  0  0  0  0  0  0  0  0
   -5.6800  -12.4408   30.9343 H   0  0  0  0  0  0  0  0  0  0  0  0
   -5.9963  -13.5549   33.1400 H   0  0  0  0  0  0  0  0  0  0  0  0
   -6.1067  -16.0158   33.1067 H   0  0  0  0  0  0  0  0  0  0  0  0
   -5.8909  -17.2054   31.1196 H   0  0  0  0  0  0  0  0  0  0  0  0
   -0.8938  -14.4870   23.6041 H   0  0  0  0  0  0  0  0  0  0  0  0
    1.2962  -16.7977   20.2872 H   0  0  0  0  0  0  0  0  0  0  0  0
    0.3912  -16.0198   19.6144 H   0  0  0  0  0  0  0  0  0  0  0  0
    3.3825  -13.1893   21.6612 H   0  0  0  0  0  0  0  0  0  0  0  0
    5.1591  -12.5712   19.3674 H   0  0  0  0  0  0  0  0  0  0  0  0
    2.2466  -15.4088   17.9192 H   0  0  0  0  0  0  0  0  0  0  0  0
  1  2  1  0
  2  3  1  0
  3  4  2  0
  3  5  1  0
  5  6  1  0
  6  7  1  0
  7  8  2  0
  8  9  1  0
  9 10  1  0
 10 11  2  0
 11 12  1  0
 12 13  2  0
 13 14  1  0
 14 15  2  0
  5 16  1  0
 16 17  1  0
 17 18  2  0
 17 19  1  0
 19 20  1  0
 20 21  1  0
 21 22  2  0
 22 23  1  0
 23 24  2  0
 15  7  1  0
 24 20  1  0
 15 10  1  0
  1 25  1  0
  1 26  1  0
  1 27  1  0
  5 28  1  0
  6 29  1  0
  6 30  1  0
  8 31  1  0
  9 32  1  0
 11 33  1  0
 12 34  1  0
 13 35  1  0
 14 36  1  0
 16 37  1  0
 19 38  1  0
 19 39  1  0
 21 40  1  0
 22 41  1  0
 24 42  1  0
M  END
>  <Energy>  (1254) 
1277.6768405700595

>  <compound_id>  (1254) 
62386

>  <target_id>  (1254) 
1

>  <reference_id>  (1254) 
35

>  <inspiration_ids>  (1254) 
[35, 93]

>  <energy_score>  (1254) 
1208.5306255785142

>  <distance_score>  (1254) 
14.13364967864404

>  <path>  (1254) 
/opt/xchem-fragalysis-2/maxwin/BulkDock/SCRATCH/511021/C62386-P35/C62386-P35.minimised.mol

>  <scratch_subdir>  (1254) 
/opt/xchem-fragalysis-2/maxwin/BulkDock/SCRATCH/511021/C62386-P35

>  <fragmenstein_runtime>  (1254) 
56.36694049835205

>  <fragmenstein_outcome>  (1254) 
too moved

>  <fragmenstein_mode>  (1254) 
expansion

>  <fragmenstein_error>  (1254) 


$$$$
C62386-P93
     RDKit          3D

 42 44  0  0  0  0  0  0  0  0999 V2000
   -1.2980  -17.5008   28.6552 C   0  0  0  0  0  0  0  0  0  0  0  0
   -1.8466  -16.6809   27.6058 O   0  0  0  0  0  0  0  0  0  0  0  0
   -1.9924  -15.3103   27.9026 C   0  0  0  0  0  0  0  0  0  0  0  0
   -1.7133  -14.9839   29.0369 O   0  0  0  0  0  0  0  0  0  0  0  0
   -2.6695  -14.3434   26.5893 C   0  0  0  0  0  0  0  0  0  0  0  0
   -3.9690  -15.5118   27.4093 C   0  0  0  0  0  0  0  0  0  0  0  0
   -4.7416  -14.6979   28.7344 C   0  0  0  0  0  0  0  0  0  0  0  0
   -4.7414  -13.3165   28.7615 C   0  0  0  0  0  0  0  0  0  0  0  0
   -3.7257  -13.0734   29.6807 N   0  0  0  0  0  0  0  0  0  0  0  0
   -3.6171  -14.1391   30.5610 C   0  0  0  0  0  0  0  0  0  0  0  0
   -3.0013  -14.1586   31.8128 C   0  0  0  0  0  0  0  0  0  0  0  0
   -3.8800  -14.3666   32.8657 C   0  0  0  0  0  0  0  0  0  0  0  0
   -5.2322  -14.4979   32.6007 C   0  0  0  0  0  0  0  0  0  0  0  0
   -5.6495  -14.6169   31.2691 C   0  0  0  0  0  0  0  0  0  0  0  0
   -4.7357  -14.8776   30.2016 C   0  0  0  0  0  0  0  0  0  0  0  0
   -1.2186  -13.7875   25.4594 N   0  0  0  0  0  0  0  0  0  0  0  0
    0.4279  -12.8423   25.9848 C   0  0  0  0  0  0  0  0  0  0  0  0
    0.7530  -12.3638   27.0364 O   0  0  0  0  0  0  0  0  0  0  0  0
    1.9147  -12.7323   24.7169 C   0  0  0  0  0  0  0  0  0  0  0  0
    3.7116  -12.7613   24.2351 N   0  0  0  0  0  0  0  0  0  0  0  0
    3.6603  -11.9714   22.7810 C   0  0  0  0  0  0  0  0  0  0  0  0
    4.8192  -11.0102   22.6574 C   0  0  0  0  0  0  0  0  0  0  0  0
    5.9590  -11.3169   23.9424 N   0  0  0  0  0  0  0  0  0  0  0  0
    5.3892  -12.1337   24.9435 C   0  0  0  0  0  0  0  0  0  0  0  0
   -1.6925  -17.2318   29.6364 H   0  0  0  0  0  0  0  0  0  0  0  0
   -1.5583  -18.5392   28.4379 H   0  0  0  0  0  0  0  0  0  0  0  0
   -0.2078  -17.4181   28.6608 H   0  0  0  0  0  0  0  0  0  0  0  0
   -3.2793  -13.4747   26.5543 H   0  0  0  0  0  0  0  0  0  0  0  0
   -3.7517  -16.4762   27.8844 H   0  0  0  0  0  0  0  0  0  0  0  0
   -4.7224  -15.8757   26.6975 H   0  0  0  0  0  0  0  0  0  0  0  0
   -4.9017  -12.5717   28.0036 H   0  0  0  0  0  0  0  0  0  0  0  0
   -3.1861  -12.2217   29.7513 H   0  0  0  0  0  0  0  0  0  0  0  0
   -2.0390  -13.6890   31.9873 H   0  0  0  0  0  0  0  0  0  0  0  0
   -3.5337  -14.2206   33.8853 H   0  0  0  0  0  0  0  0  0  0  0  0
   -5.9668  -14.4006   33.3947 H   0  0  0  0  0  0  0  0  0  0  0  0
   -6.6585  -14.2890   31.0596 H   0  0  0  0  0  0  0  0  0  0  0  0
   -1.1284  -14.1306   24.5287 H   0  0  0  0  0  0  0  0  0  0  0  0
    1.8037  -13.3960   23.9357 H   0  0  0  0  0  0  0  0  0  0  0  0
    2.2775  -13.4045   25.5115 H   0  0  0  0  0  0  0  0  0  0  0  0
    2.6201  -11.8643   22.8640 H   0  0  0  0  0  0  0  0  0  0  0  0
    5.3573  -10.9604   21.7263 H   0  0  0  0  0  0  0  0  0  0  0  0
    5.6977  -12.6389   25.8564 H   0  0  0  0  0  0  0  0  0  0  0  0
  1  2  1  0
  2  3  1  0
  3  4  2  0
  3  5  1  0
  5  6  1  0
  6  7  1  0
  7  8  2  0
  8  9  1  0
  9 10  1  0
 10 11  2  0
 11 12  1  0
 12 13  2  0
 13 14  1  0
 14 15  2  0
  5 16  1  0
 16 17  1  0
 17 18  2  0
 17 19  1  0
 19 20  1  0
 20 21  1  0
 21 22  2  0
 22 23  1  0
 23 24  2  0
 15  7  1  0
 24 20  1  0
 15 10  1  0
  1 25  1  0
  1 26  1  0
  1 27  1  0
  5 28  1  0
  6 29  1  0
  6 30  1  0
  8 31  1  0
  9 32  1  0
 11 33  1  0
 12 34  1  0
 13 35  1  0
 14 36  1  0
 16 37  1  0
 19 38  1  0
 19 39  1  0
 21 40  1  0
 22 41  1  0
 24 42  1  0
M  END
>  <Energy>  (1255) 
846.98343869075075

>  <compound_id>  (1255) 
62386

>  <target_id>  (1255) 
1

>  <reference_id>  (1255) 
93

>  <inspiration_ids>  (1255) 
[35, 93]

>  <energy_score>  (1255) 
777.8372236992

>  <distance_score>  (1255) 
13.931036054861798

>  <path>  (1255) 
/opt/xchem-fragalysis-2/maxwin/BulkDock/SCRATCH/511021/C62386-P93/C62386-P93.minimised.mol

>  <scratch_subdir>  (1255) 
/opt/xchem-fragalysis-2/maxwin/BulkDock/SCRATCH/511021/C62386-P93

>  <fragmenstein_runtime>  (1255) 
42.39211320877075

>  <fragmenstein_outcome>  (1255) 
too moved

>  <fragmenstein_mode>  (1255) 
expansion

>  <fragmenstein_error>  (1255) 


$$$$
C62387-P35
     RDKit          3D

 51 53  0  0  0  0  0  0  0  0999 V2000
   -6.2086  -14.1027   36.1113 C   0  0  0  0  0  0  0  0  0  0  0  0
   -6.8170  -15.1687   35.3743 O   0  0  0  0  0  0  0  0  0  0  0  0
   -6.4451  -15.2196   34.0478 C   0  0  0  0  0  0  0  0  0  0  0  0
   -5.7719  -14.3344   33.5288 O   0  0  0  0  0  0  0  0  0  0  0  0
   -6.9622  -16.5079   33.3130 C   0  0  0  0  0  0  0  0  0  0  0  0
   -7.4735  -17.8056   34.1410 C   0  0  0  0  0  0  0  0  0  0  0  0
   -8.9267  -18.1917   34.4346 C   0  0  0  0  0  0  0  0  0  0  0  0
   -9.9130  -17.4008   34.9751 C   0  0  0  0  0  0  0  0  0  0  0  0
  -11.0714  -18.1283   35.0845 N   0  0  0  0  0  0  0  0  0  0  0  0
  -10.8831  -19.4126   34.6402 C   0  0  0  0  0  0  0  0  0  0  0  0
  -11.7971  -20.4670   34.4866 C   0  0  0  0  0  0  0  0  0  0  0  0
  -11.3287  -21.6947   34.0264 C   0  0  0  0  0  0  0  0  0  0  0  0
   -9.9903  -21.8564   33.7297 C   0  0  0  0  0  0  0  0  0  0  0  0
   -9.1093  -20.7720   33.8371 C   0  0  0  0  0  0  0  0  0  0  0  0
   -9.5403  -19.5093   34.2870 C   0  0  0  0  0  0  0  0  0  0  0  0
   -6.0360  -16.8681   31.9115 N   0  0  0  0  0  0  0  0  0  0  0  0
   -5.4228  -15.8814   30.7488 C   0  0  0  0  0  0  0  0  0  0  0  0
   -5.4368  -14.6682   30.7056 O   0  0  0  0  0  0  0  0  0  0  0  0
   -4.6645  -16.6437   29.0853 C   0  0  0  0  0  0  0  0  0  0  0  0
   -2.8228  -16.5519   29.2180 N   0  0  0  0  0  0  0  0  0  0  0  0
   -2.5571  -15.2894   29.4710 C   0  0  0  0  0  0  0  0  0  0  0  0
   -2.5555  -15.3388   28.0289 C   0  0  0  0  0  0  0  0  0  0  0  0
   -2.3949  -16.5657   27.3656 N   0  0  0  0  0  0  0  0  0  0  0  0
   -1.4857  -16.5349   28.2248 C   0  0  0  0  0  0  0  0  0  0  0  0
   -0.4815  -14.9023   27.8670 C   0  0  0  0  0  0  0  0  0  0  0  0
    0.8493  -13.7804   26.6424 C   0  0  0  0  0  0  0  0  0  0  0  0
    0.9458  -16.2667   28.4801 C   0  0  0  0  0  0  0  0  0  0  0  0
   -6.5713  -13.1331   35.7571 H   0  0  0  0  0  0  0  0  0  0  0  0
   -6.4917  -14.2169   37.1612 H   0  0  0  0  0  0  0  0  0  0  0  0
   -5.1178  -14.1520   36.0409 H   0  0  0  0  0  0  0  0  0  0  0  0
   -7.9263  -16.1134   32.9795 H   0  0  0  0  0  0  0  0  0  0  0  0
   -7.1220  -18.6628   33.5845 H   0  0  0  0  0  0  0  0  0  0  0  0
   -7.0482  -17.8267   35.1436 H   0  0  0  0  0  0  0  0  0  0  0  0
   -9.9079  -16.3587   35.2386 H   0  0  0  0  0  0  0  0  0  0  0  0
  -11.9651  -17.7403   35.3477 H   0  0  0  0  0  0  0  0  0  0  0  0
  -12.8510  -20.3334   34.6959 H   0  0  0  0  0  0  0  0  0  0  0  0
  -12.0224  -22.5177   33.8926 H   0  0  0  0  0  0  0  0  0  0  0  0
   -9.6269  -22.8207   33.3866 H   0  0  0  0  0  0  0  0  0  0  0  0
   -8.0772  -20.9063   33.5396 H   0  0  0  0  0  0  0  0  0  0  0  0
   -5.9433  -17.8244   31.6200 H   0  0  0  0  0  0  0  0  0  0  0  0
   -5.0249  -16.4201   28.1534 H   0  0  0  0  0  0  0  0  0  0  0  0
   -4.7649  -17.6789   28.8973 H   0  0  0  0  0  0  0  0  0  0  0  0
   -2.8265  -14.5563   30.2231 H   0  0  0  0  0  0  0  0  0  0  0  0
   -2.5250  -14.4900   27.3448 H   0  0  0  0  0  0  0  0  0  0  0  0
   -1.0614  -14.4734   28.6197 H   0  0  0  0  0  0  0  0  0  0  0  0
    0.8059  -12.6832   26.8466 H   0  0  0  0  0  0  0  0  0  0  0  0
    1.9201  -13.9964   26.8388 H   0  0  0  0  0  0  0  0  0  0  0  0
    0.9128  -13.6514   25.5716 H   0  0  0  0  0  0  0  0  0  0  0  0
    0.8859  -16.4504   29.5694 H   0  0  0  0  0  0  0  0  0  0  0  0
    1.9267  -15.9179   28.1650 H   0  0  0  0  0  0  0  0  0  0  0  0
    0.7788  -17.2581   28.0176 H   0  0  0  0  0  0  0  0  0  0  0  0
  1  2  1  0
  2  3  1  0
  3  4  2  0
  3  5  1  0
  5  6  1  0
  6  7  1  0
  7  8  2  0
  8  9  1  0
  9 10  1  0
 10 11  2  0
 11 12  1  0
 12 13  2  0
 13 14  1  0
 14 15  2  0
  5 16  1  0
 16 17  1  0
 17 18  2  0
 17 19  1  0
 19 20  1  0
 20 21  1  0
 21 22  2  0
 22 23  1  0
 23 24  2  0
 24 25  1  0
 25 26  1  0
 25 27  1  0
 15  7  1  0
 24 20  1  0
 15 10  1  0
  1 28  1  0
  1 29  1  0
  1 30  1  0
  5 31  1  0
  6 32  1  0
  6 33  1  0
  8 34  1  0
  9 35  1  0
 11 36  1  0
 12 37  1  0
 13 38  1  0
 14 39  1  0
 16 40  1  0
 19 41  1  0
 19 42  1  0
 21 43  1  0
 22 44  1  0
 25 45  1  0
 26 46  1  0
 26 47  1  0
 26 48  1  0
 27 49  1  0
 27 50  1  0
 27 51  1  0
M  END
>  <Energy>  (1256) 
751.95662068509012

>  <compound_id>  (1256) 
62387

>  <target_id>  (1256) 
1

>  <reference_id>  (1256) 
35

>  <inspiration_ids>  (1256) 
[35, 93]

>  <energy_score>  (1256) 
663.0349514051373

>  <distance_score>  (1256) 
16.120500987130743

>  <path>  (1256) 
/opt/xchem-fragalysis-2/maxwin/BulkDock/SCRATCH/511021/C62387-P35/C62387-P35.minimised.mol

>  <scratch_subdir>  (1256) 
/opt/xchem-fragalysis-2/maxwin/BulkDock/SCRATCH/511021/C62387-P35

>  <fragmenstein_runtime>  (1256) 
71.82686305046082

>  <fragmenstein_outcome>  (1256) 
too moved

>  <fragmenstein_mode>  (1256) 
expansion

>  <fragmenstein_error>  (1256) 


$$$$
C62387-P93
     RDKit          3D

 51 53  0  0  0  0  0  0  0  0999 V2000
   -9.6895  -11.5323   22.7208 C   0  0  0  0  0  0  0  0  0  0  0  0
   -8.7815  -12.2896   23.5179 O   0  0  0  0  0  0  0  0  0  0  0  0
   -8.3072  -13.4152   22.9128 C   0  0  0  0  0  0  0  0  0  0  0  0
   -8.6291  -13.7836   21.7869 O   0  0  0  0  0  0  0  0  0  0  0  0
   -7.2512  -14.1151   23.7771 C   0  0  0  0  0  0  0  0  0  0  0  0
   -7.9544  -14.4760   25.2179 C   0  0  0  0  0  0  0  0  0  0  0  0
   -9.0060  -15.6252   25.1277 C   0  0  0  0  0  0  0  0  0  0  0  0
  -10.2964  -15.4811   24.6476 C   0  0  0  0  0  0  0  0  0  0  0  0
  -10.8858  -16.7148   24.5399 N   0  0  0  0  0  0  0  0  0  0  0  0
  -10.0187  -17.6943   24.9497 C   0  0  0  0  0  0  0  0  0  0  0  0
  -10.1480  -19.0934   24.8906 C   0  0  0  0  0  0  0  0  0  0  0  0
   -9.1058  -19.8651   25.3990 C   0  0  0  0  0  0  0  0  0  0  0  0
   -8.0284  -19.2445   26.0117 C   0  0  0  0  0  0  0  0  0  0  0  0
   -7.9405  -17.8437   26.0970 C   0  0  0  0  0  0  0  0  0  0  0  0
   -8.8962  -17.0355   25.4638 C   0  0  0  0  0  0  0  0  0  0  0  0
   -5.8512  -13.2436   23.4549 N   0  0  0  0  0  0  0  0  0  0  0  0
   -5.2661  -11.6680   23.9781 C   0  0  0  0  0  0  0  0  0  0  0  0
   -5.9868  -11.2232   24.7609 O   0  0  0  0  0  0  0  0  0  0  0  0
   -3.6315  -10.2968   23.3263 C   0  0  0  0  0  0  0  0  0  0  0  0
   -1.7765   -9.5045   22.6882 N   0  0  0  0  0  0  0  0  0  0  0  0
   -2.2025   -8.3231   22.1669 C   0  0  0  0  0  0  0  0  0  0  0  0
   -1.8152   -7.6049   23.3296 C   0  0  0  0  0  0  0  0  0  0  0  0
   -0.6180   -7.6801   23.8355 N   0  0  0  0  0  0  0  0  0  0  0  0
   -0.0973   -8.4867   22.9386 C   0  0  0  0  0  0  0  0  0  0  0  0
    1.9012   -8.0135   23.4300 C   0  0  0  0  0  0  0  0  0  0  0  0
    3.8757   -8.0310   23.0534 C   0  0  0  0  0  0  0  0  0  0  0  0
    3.1777   -6.7871   24.4659 C   0  0  0  0  0  0  0  0  0  0  0  0
   -9.9943  -10.6538   23.2962 H   0  0  0  0  0  0  0  0  0  0  0  0
  -10.5821  -12.1226   22.4911 H   0  0  0  0  0  0  0  0  0  0  0  0
   -9.2017  -11.1916   21.8021 H   0  0  0  0  0  0  0  0  0  0  0  0
   -7.0447  -15.0898   23.3127 H   0  0  0  0  0  0  0  0  0  0  0  0
   -7.2531  -14.7839   25.9884 H   0  0  0  0  0  0  0  0  0  0  0  0
   -8.4522  -13.5818   25.6122 H   0  0  0  0  0  0  0  0  0  0  0  0
  -10.8270  -14.6023   24.3040 H   0  0  0  0  0  0  0  0  0  0  0  0
  -11.7928  -16.8870   24.1279 H   0  0  0  0  0  0  0  0  0  0  0  0
  -11.0249  -19.5682   24.4593 H   0  0  0  0  0  0  0  0  0  0  0  0
   -9.1682  -20.9492   25.3640 H   0  0  0  0  0  0  0  0  0  0  0  0
   -7.2462  -19.8579   26.4483 H   0  0  0  0  0  0  0  0  0  0  0  0
   -7.1257  -17.3957   26.6544 H   0  0  0  0  0  0  0  0  0  0  0  0
   -5.1807  -13.6106   22.8715 H   0  0  0  0  0  0  0  0  0  0  0  0
   -3.3814   -9.5680   24.0278 H   0  0  0  0  0  0  0  0  0  0  0  0
   -3.9665   -9.9324   22.3270 H   0  0  0  0  0  0  0  0  0  0  0  0
   -3.0836   -8.2342   21.5464 H   0  0  0  0  0  0  0  0  0  0  0  0
   -2.2717   -6.6800   23.7233 H   0  0  0  0  0  0  0  0  0  0  0  0
    1.3815   -8.1340   24.3200 H   0  0  0  0  0  0  0  0  0  0  0  0
    4.5801   -7.1616   23.1311 H   0  0  0  0  0  0  0  0  0  0  0  0
    4.4547   -8.1466   22.2342 H   0  0  0  0  0  0  0  0  0  0  0  0
    4.6857   -8.0542   23.8812 H   0  0  0  0  0  0  0  0  0  0  0  0
    3.8814   -7.3163   25.1404 H   0  0  0  0  0  0  0  0  0  0  0  0
    4.2327   -6.3623   24.4403 H   0  0  0  0  0  0  0  0  0  0  0  0
    2.7804   -5.8805   25.0364 H   0  0  0  0  0  0  0  0  0  0  0  0
  1  2  1  0
  2  3  1  0
  3  4  2  0
  3  5  1  0
  5  6  1  0
  6  7  1  0
  7  8  2  0
  8  9  1  0
  9 10  1  0
 10 11  2  0
 11 12  1  0
 12 13  2  0
 13 14  1  0
 14 15  2  0
  5 16  1  0
 16 17  1  0
 17 18  2  0
 17 19  1  0
 19 20  1  0
 20 21  1  0
 21 22  2  0
 22 23  1  0
 23 24  2  0
 24 25  1  0
 25 26  1  0
 25 27  1  0
 15  7  1  0
 24 20  1  0
 15 10  1  0
  1 28  1  0
  1 29  1  0
  1 30  1  0
  5 31  1  0
  6 32  1  0
  6 33  1  0
  8 34  1  0
  9 35  1  0
 11 36  1  0
 12 37  1  0
 13 38  1  0
 14 39  1  0
 16 40  1  0
 19 41  1  0
 19 42  1  0
 21 43  1  0
 22 44  1  0
 25 45  1  0
 26 46  1  0
 26 47  1  0
 26 48  1  0
 27 49  1  0
 27 50  1  0
 27 51  1  0
M  END
>  <Energy>  (1257) 
1348.1292227945482

>  <compound_id>  (1257) 
62387

>  <target_id>  (1257) 
1

>  <reference_id>  (1257) 
93

>  <inspiration_ids>  (1257) 
[35, 93]

>  <energy_score>  (1257) 
1259.2075535145887

>  <distance_score>  (1257) 
13.690087480723587

>  <path>  (1257) 
/opt/xchem-fragalysis-2/maxwin/BulkDock/SCRATCH/511021/C62387-P93/C62387-P93.minimised.mol

>  <scratch_subdir>  (1257) 
/opt/xchem-fragalysis-2/maxwin/BulkDock/SCRATCH/511021/C62387-P93

>  <fragmenstein_runtime>  (1257) 
92.61682653427124

>  <fragmenstein_outcome>  (1257) 
too moved

>  <fragmenstein_mode>  (1257) 
expansion

>  <fragmenstein_error>  (1257) 


$$$$
C62388-P35
     RDKit          3D

 45 47  0  0  0  0  0  0  0  0999 V2000
    1.0333  -20.4446   34.0424 C   0  0  0  0  0  0  0  0  0  0  0  0
    0.3145  -20.1532   32.8428 O   0  0  0  0  0  0  0  0  0  0  0  0
    0.3238  -18.8355   32.4940 C   0  0  0  0  0  0  0  0  0  0  0  0
    0.9116  -17.9498   33.1070 O   0  0  0  0  0  0  0  0  0  0  0  0
   -0.5078  -18.6022   31.2335 C   0  0  0  0  0  0  0  0  0  0  0  0
   -2.4594  -18.9439   32.1520 C   0  0  0  0  0  0  0  0  0  0  0  0
   -4.5690  -19.5123   32.2895 C   0  0  0  0  0  0  0  0  0  0  0  0
   -5.7186  -18.1292   32.2921 C   0  0  0  0  0  0  0  0  0  0  0  0
   -6.8012  -17.8713   33.1314 N   0  0  0  0  0  0  0  0  0  0  0  0
   -7.1982  -19.0077   33.7356 C   0  0  0  0  0  0  0  0  0  0  0  0
   -8.4336  -19.1949   34.4237 C   0  0  0  0  0  0  0  0  0  0  0  0
   -9.0732  -20.4075   34.3153 C   0  0  0  0  0  0  0  0  0  0  0  0
   -8.4482  -21.3542   33.5479 C   0  0  0  0  0  0  0  0  0  0  0  0
   -7.0869  -21.1349   33.0176 C   0  0  0  0  0  0  0  0  0  0  0  0
   -6.1984  -20.0090   33.1218 C   0  0  0  0  0  0  0  0  0  0  0  0
    0.8384  -17.2174   30.4296 N   0  0  0  0  0  0  0  0  0  0  0  0
    1.7467  -17.1095   28.7026 C   0  0  0  0  0  0  0  0  0  0  0  0
    1.4863  -17.9697   27.8921 O   0  0  0  0  0  0  0  0  0  0  0  0
    3.2378  -15.7616   27.8712 C   0  0  0  0  0  0  0  0  0  0  0  0
    4.2161  -14.0573   27.3079 N   0  0  0  0  0  0  0  0  0  0  0  0
    4.8938  -12.9506   28.3625 C   0  0  0  0  0  0  0  0  0  0  0  0
    5.5517  -11.7844   28.0864 C   0  0  0  0  0  0  0  0  0  0  0  0
    5.7452  -11.8076   26.7981 N   0  0  0  0  0  0  0  0  0  0  0  0
    5.5796  -13.1094   26.4579 C   0  0  0  0  0  0  0  0  0  0  0  0
    7.3545  -13.3004   26.3566 C   0  0  0  0  0  0  0  0  0  0  0  0
    2.0923  -20.1954   33.9242 H   0  0  0  0  0  0  0  0  0  0  0  0
    0.9483  -21.5176   34.2352 H   0  0  0  0  0  0  0  0  0  0  0  0
    0.5982  -19.9053   34.8897 H   0  0  0  0  0  0  0  0  0  0  0  0
   -0.3402  -19.4629   30.5643 H   0  0  0  0  0  0  0  0  0  0  0  0
   -2.2978  -19.6523   31.3395 H   0  0  0  0  0  0  0  0  0  0  0  0
   -2.1293  -19.3494   33.1225 H   0  0  0  0  0  0  0  0  0  0  0  0
   -5.5076  -17.1358   31.8895 H   0  0  0  0  0  0  0  0  0  0  0  0
   -7.2887  -16.9894   33.1998 H   0  0  0  0  0  0  0  0  0  0  0  0
   -8.9625  -18.3384   34.8342 H   0  0  0  0  0  0  0  0  0  0  0  0
  -10.0594  -20.5672   34.7320 H   0  0  0  0  0  0  0  0  0  0  0  0
   -8.9656  -22.2926   33.3621 H   0  0  0  0  0  0  0  0  0  0  0  0
   -6.7685  -21.6622   32.1516 H   0  0  0  0  0  0  0  0  0  0  0  0
    1.2097  -16.4931   31.0343 H   0  0  0  0  0  0  0  0  0  0  0  0
    2.4050  -15.0543   27.7493 H   0  0  0  0  0  0  0  0  0  0  0  0
    3.5866  -16.2862   26.9997 H   0  0  0  0  0  0  0  0  0  0  0  0
    5.0057  -13.4641   29.2585 H   0  0  0  0  0  0  0  0  0  0  0  0
    5.9376  -11.0327   28.7603 H   0  0  0  0  0  0  0  0  0  0  0  0
    7.8144  -12.8387   27.2394 H   0  0  0  0  0  0  0  0  0  0  0  0
    7.7383  -14.3208   26.2785 H   0  0  0  0  0  0  0  0  0  0  0  0
    7.6789  -12.6724   25.5125 H   0  0  0  0  0  0  0  0  0  0  0  0
  1  2  1  0
  2  3  1  0
  3  4  2  0
  3  5  1  0
  5  6  1  0
  6  7  1  0
  7  8  2  0
  8  9  1  0
  9 10  1  0
 10 11  2  0
 11 12  1  0
 12 13  2  0
 13 14  1  0
 14 15  2  0
  5 16  1  0
 16 17  1  0
 17 18  2  0
 17 19  1  0
 19 20  1  0
 20 21  1  0
 21 22  2  0
 22 23  1  0
 23 24  2  0
 24 25  1  0
 15  7  1  0
 24 20  1  0
 15 10  1  0
  1 26  1  0
  1 27  1  0
  1 28  1  0
  5 29  1  0
  6 30  1  0
  6 31  1  0
  8 32  1  0
  9 33  1  0
 11 34  1  0
 12 35  1  0
 13 36  1  0
 14 37  1  0
 16 38  1  0
 19 39  1  0
 19 40  1  0
 21 41  1  0
 22 42  1  0
 25 43  1  0
 25 44  1  0
 25 45  1  0
M  END
>  <Energy>  (1258) 
1424.5473204282714

>  <compound_id>  (1258) 
62388

>  <target_id>  (1258) 
1

>  <reference_id>  (1258) 
35

>  <inspiration_ids>  (1258) 
[35, 93]

>  <energy_score>  (1258) 
1351.0855229481074

>  <distance_score>  (1258) 
12.797552598109878

>  <path>  (1258) 
/opt/xchem-fragalysis-2/maxwin/BulkDock/SCRATCH/511021/C62388-P35/C62388-P35.minimised.mol

>  <scratch_subdir>  (1258) 
/opt/xchem-fragalysis-2/maxwin/BulkDock/SCRATCH/511021/C62388-P35

>  <fragmenstein_runtime>  (1258) 
55.54937767982483

>  <fragmenstein_outcome>  (1258) 
too moved

>  <fragmenstein_mode>  (1258) 
expansion

>  <fragmenstein_error>  (1258) 


$$$$
C62388-P93
     RDKit          3D

 45 47  0  0  0  0  0  0  0  0999 V2000
   -3.1456  -14.7270   32.1271 C   0  0  0  0  0  0  0  0  0  0  0  0
   -3.0919  -16.1540   32.2308 O   0  0  0  0  0  0  0  0  0  0  0  0
   -2.0827  -16.6466   32.9646 C   0  0  0  0  0  0  0  0  0  0  0  0
   -1.2902  -15.9185   33.5725 O   0  0  0  0  0  0  0  0  0  0  0  0
   -1.8678  -18.1883   32.9333 C   0  0  0  0  0  0  0  0  0  0  0  0
   -3.0435  -19.4235   32.4758 C   0  0  0  0  0  0  0  0  0  0  0  0
   -5.0781  -19.3008   32.3316 C   0  0  0  0  0  0  0  0  0  0  0  0
   -5.7996  -17.8430   32.0441 C   0  0  0  0  0  0  0  0  0  0  0  0
   -6.5625  -17.4163   33.0382 N   0  0  0  0  0  0  0  0  0  0  0  0
   -7.0796  -18.5650   33.4505 C   0  0  0  0  0  0  0  0  0  0  0  0
   -8.2689  -18.5146   33.9657 C   0  0  0  0  0  0  0  0  0  0  0  0
   -8.7444  -19.6602   33.4359 C   0  0  0  0  0  0  0  0  0  0  0  0
   -8.0306  -20.9900   33.3399 C   0  0  0  0  0  0  0  0  0  0  0  0
   -6.7326  -21.0159   33.0417 C   0  0  0  0  0  0  0  0  0  0  0  0
   -6.2295  -19.7710   33.0012 C   0  0  0  0  0  0  0  0  0  0  0  0
   -0.4503  -18.0820   32.3366 N   0  0  0  0  0  0  0  0  0  0  0  0
    0.3003  -18.9927   31.4568 C   0  0  0  0  0  0  0  0  0  0  0  0
    0.0261  -20.0841   31.0490 O   0  0  0  0  0  0  0  0  0  0  0  0
    1.5985  -18.1952   31.0024 C   0  0  0  0  0  0  0  0  0  0  0  0
    2.6008  -18.8028   30.1035 N   0  0  0  0  0  0  0  0  0  0  0  0
    3.5827  -19.6413   30.5840 C   0  0  0  0  0  0  0  0  0  0  0  0
    4.3388  -20.0101   29.5046 C   0  0  0  0  0  0  0  0  0  0  0  0
    3.9333  -19.3384   28.4009 N   0  0  0  0  0  0  0  0  0  0  0  0
    2.9565  -18.5370   28.7869 C   0  0  0  0  0  0  0  0  0  0  0  0
    2.3839  -17.5498   27.8455 C   0  0  0  0  0  0  0  0  0  0  0  0
   -3.9950  -14.4673   31.4894 H   0  0  0  0  0  0  0  0  0  0  0  0
   -2.2315  -14.3453   31.6624 H   0  0  0  0  0  0  0  0  0  0  0  0
   -3.2983  -14.2760   33.1123 H   0  0  0  0  0  0  0  0  0  0  0  0
   -1.6463  -18.4439   33.9803 H   0  0  0  0  0  0  0  0  0  0  0  0
   -2.4763  -19.6440   31.5714 H   0  0  0  0  0  0  0  0  0  0  0  0
   -2.8166  -20.0047   33.3495 H   0  0  0  0  0  0  0  0  0  0  0  0
   -5.4961  -16.9819   31.4653 H   0  0  0  0  0  0  0  0  0  0  0  0
   -6.9487  -16.4904   33.1877 H   0  0  0  0  0  0  0  0  0  0  0  0
   -8.8343  -17.5995   34.1167 H   0  0  0  0  0  0  0  0  0  0  0  0
   -9.7818  -19.5647   33.0837 H   0  0  0  0  0  0  0  0  0  0  0  0
   -8.5258  -21.9350   33.1439 H   0  0  0  0  0  0  0  0  0  0  0  0
   -6.3841  -21.5732   32.2092 H   0  0  0  0  0  0  0  0  0  0  0  0
    0.1245  -17.2671   32.5434 H   0  0  0  0  0  0  0  0  0  0  0  0
    2.1502  -17.9088   31.9073 H   0  0  0  0  0  0  0  0  0  0  0  0
    1.2628  -17.2774   30.5130 H   0  0  0  0  0  0  0  0  0  0  0  0
    3.6114  -19.9588   31.6169 H   0  0  0  0  0  0  0  0  0  0  0  0
    5.1543  -20.7209   29.4742 H   0  0  0  0  0  0  0  0  0  0  0  0
    1.4126  -17.1907   28.1750 H   0  0  0  0  0  0  0  0  0  0  0  0
    3.0629  -16.7150   27.6995 H   0  0  0  0  0  0  0  0  0  0  0  0
    2.2691  -18.0667   26.8928 H   0  0  0  0  0  0  0  0  0  0  0  0
  1  2  1  0
  2  3  1  0
  3  4  2  0
  3  5  1  0
  5  6  1  0
  6  7  1  0
  7  8  2  0
  8  9  1  0
  9 10  1  0
 10 11  2  0
 11 12  1  0
 12 13  2  0
 13 14  1  0
 14 15  2  0
  5 16  1  0
 16 17  1  0
 17 18  2  0
 17 19  1  0
 19 20  1  0
 20 21  1  0
 21 22  2  0
 22 23  1  0
 23 24  2  0
 24 25  1  0
 15  7  1  0
 24 20  1  0
 15 10  1  0
  1 26  1  0
  1 27  1  0
  1 28  1  0
  5 29  1  0
  6 30  1  0
  6 31  1  0
  8 32  1  0
  9 33  1  0
 11 34  1  0
 12 35  1  0
 13 36  1  0
 14 37  1  0
 16 38  1  0
 19 39  1  0
 19 40  1  0
 21 41  1  0
 22 42  1  0
 25 43  1  0
 25 44  1  0
 25 45  1  0
M  END
>  <Energy>  (1259) 
347.82370647671064

>  <compound_id>  (1259) 
62388

>  <target_id>  (1259) 
1

>  <reference_id>  (1259) 
93

>  <inspiration_ids>  (1259) 
[35, 93]

>  <energy_score>  (1259) 
274.36190899656333

>  <distance_score>  (1259) 
15.946091856663534

>  <path>  (1259) 
/opt/xchem-fragalysis-2/maxwin/BulkDock/SCRATCH/511021/C62388-P93/C62388-P93.minimised.mol

>  <scratch_subdir>  (1259) 
/opt/xchem-fragalysis-2/maxwin/BulkDock/SCRATCH/511021/C62388-P93

>  <fragmenstein_runtime>  (1259) 
58.683839321136475

>  <fragmenstein_outcome>  (1259) 
too moved

>  <fragmenstein_mode>  (1259) 
expansion

>  <fragmenstein_error>  (1259) 


$$$$
C62389-P35
     RDKit          3D

 48 50  0  0  0  0  0  0  0  0999 V2000
   -5.3566  -16.5472   22.5998 C   0  0  0  0  0  0  0  0  0  0  0  0
   -4.1476  -15.8489   23.0044 O   0  0  0  0  0  0  0  0  0  0  0  0
   -3.7789  -15.9517   24.2756 C   0  0  0  0  0  0  0  0  0  0  0  0
   -4.6001  -16.6020   24.9351 O   0  0  0  0  0  0  0  0  0  0  0  0
   -2.1347  -15.3065   24.9270 C   0  0  0  0  0  0  0  0  0  0  0  0
   -2.4619  -17.0881   25.8274 C   0  0  0  0  0  0  0  0  0  0  0  0
   -1.6796  -18.1386   26.6990 C   0  0  0  0  0  0  0  0  0  0  0  0
   -1.6238  -19.4851   26.3335 C   0  0  0  0  0  0  0  0  0  0  0  0
   -1.2113  -20.2377   27.3952 N   0  0  0  0  0  0  0  0  0  0  0  0
   -1.0129  -19.4352   28.4865 C   0  0  0  0  0  0  0  0  0  0  0  0
   -0.6491  -19.7967   29.7903 C   0  0  0  0  0  0  0  0  0  0  0  0
   -0.5442  -18.7757   30.7344 C   0  0  0  0  0  0  0  0  0  0  0  0
   -0.8305  -17.4543   30.3889 C   0  0  0  0  0  0  0  0  0  0  0  0
   -1.2545  -17.1252   29.0908 C   0  0  0  0  0  0  0  0  0  0  0  0
   -1.3043  -18.1198   28.0945 C   0  0  0  0  0  0  0  0  0  0  0  0
   -0.5168  -14.3437   24.2165 N   0  0  0  0  0  0  0  0  0  0  0  0
    0.9988  -13.6084   25.0962 C   0  0  0  0  0  0  0  0  0  0  0  0
    1.2018  -13.5287   26.3110 O   0  0  0  0  0  0  0  0  0  0  0  0
    2.5996  -12.8804   24.0336 C   0  0  0  0  0  0  0  0  0  0  0  0
    3.5765  -12.0843   22.5859 N   0  0  0  0  0  0  0  0  0  0  0  0
    3.9145  -12.9308   21.1964 C   0  0  0  0  0  0  0  0  0  0  0  0
    5.0307  -12.4668   20.5368 C   0  0  0  0  0  0  0  0  0  0  0  0
    5.5532  -11.3462   21.1778 N   0  0  0  0  0  0  0  0  0  0  0  0
    4.9623  -10.9305   22.4657 C   0  0  0  0  0  0  0  0  0  0  0  0
    6.8768  -11.0285   23.6853 S   0  0  0  0  0  0  0  0  0  0  0  0
    8.0347  -11.7321   22.5035 C   0  0  0  0  0  0  0  0  0  0  0  0
    6.6813  -11.9906   24.7412 O   0  0  0  0  0  0  0  0  0  0  0  0
    7.5482   -9.7960   24.0773 O   0  0  0  0  0  0  0  0  0  0  0  0
   -6.2323  -16.0539   23.0319 H   0  0  0  0  0  0  0  0  0  0  0  0
   -5.4258  -16.4972   21.5094 H   0  0  0  0  0  0  0  0  0  0  0  0
   -5.3131  -17.6042   22.8821 H   0  0  0  0  0  0  0  0  0  0  0  0
   -2.3088  -14.6089   25.7570 H   0  0  0  0  0  0  0  0  0  0  0  0
   -2.8277  -17.7792   25.0733 H   0  0  0  0  0  0  0  0  0  0  0  0
   -3.3217  -17.0689   26.4933 H   0  0  0  0  0  0  0  0  0  0  0  0
   -1.9285  -19.9837   25.4228 H   0  0  0  0  0  0  0  0  0  0  0  0
   -1.1185  -21.2442   27.4037 H   0  0  0  0  0  0  0  0  0  0  0  0
   -0.4598  -20.8294   30.0667 H   0  0  0  0  0  0  0  0  0  0  0  0
   -0.2598  -19.0176   31.7562 H   0  0  0  0  0  0  0  0  0  0  0  0
   -0.7806  -16.6747   31.1458 H   0  0  0  0  0  0  0  0  0  0  0  0
   -1.5552  -16.1076   28.8608 H   0  0  0  0  0  0  0  0  0  0  0  0
   -0.4425  -14.1945   23.2169 H   0  0  0  0  0  0  0  0  0  0  0  0
    2.8802  -13.7803   23.4938 H   0  0  0  0  0  0  0  0  0  0  0  0
    2.0159  -12.0179   23.7389 H   0  0  0  0  0  0  0  0  0  0  0  0
    3.3515  -13.8492   21.0798 H   0  0  0  0  0  0  0  0  0  0  0  0
    5.4895  -12.8653   19.6410 H   0  0  0  0  0  0  0  0  0  0  0  0
    8.3343  -10.9750   21.7804 H   0  0  0  0  0  0  0  0  0  0  0  0
    8.9207  -12.0316   23.0711 H   0  0  0  0  0  0  0  0  0  0  0  0
    7.6581  -12.5960   21.9726 H   0  0  0  0  0  0  0  0  0  0  0  0
  1  2  1  0
  2  3  1  0
  3  4  2  0
  3  5  1  0
  5  6  1  0
  6  7  1  0
  7  8  2  0
  8  9  1  0
  9 10  1  0
 10 11  2  0
 11 12  1  0
 12 13  2  0
 13 14  1  0
 14 15  2  0
  5 16  1  0
 16 17  1  0
 17 18  2  0
 17 19  1  0
 19 20  1  0
 20 21  1  0
 21 22  2  0
 22 23  1  0
 23 24  2  0
 24 25  1  0
 25 26  1  0
 25 27  2  0
 25 28  2  0
 15  7  1  0
 24 20  1  0
 15 10  1  0
  1 29  1  0
  1 30  1  0
  1 31  1  0
  5 32  1  0
  6 33  1  0
  6 34  1  0
  8 35  1  0
  9 36  1  0
 11 37  1  0
 12 38  1  0
 13 39  1  0
 14 40  1  0
 16 41  1  0
 19 42  1  0
 19 43  1  0
 21 44  1  0
 22 45  1  0
 26 46  1  0
 26 47  1  0
 26 48  1  0
M  END
>  <Energy>  (1260) 
805.81015961890876

>  <compound_id>  (1260) 
62389

>  <target_id>  (1260) 
1

>  <reference_id>  (1260) 
35

>  <inspiration_ids>  (1260) 
[35, 93]

>  <energy_score>  (1260) 
672.2890029216269

>  <distance_score>  (1260) 
13.367118852768371

>  <path>  (1260) 
/opt/xchem-fragalysis-2/maxwin/BulkDock/SCRATCH/511021/C62389-P35/C62389-P35.minimised.mol

>  <scratch_subdir>  (1260) 
/opt/xchem-fragalysis-2/maxwin/BulkDock/SCRATCH/511021/C62389-P35

>  <fragmenstein_runtime>  (1260) 
49.47424936294556

>  <fragmenstein_outcome>  (1260) 
too moved

>  <fragmenstein_mode>  (1260) 
expansion

>  <fragmenstein_error>  (1260) 


$$$$
C62389-P93
     RDKit          3D

 48 50  0  0  0  0  0  0  0  0999 V2000
   -4.9766  -16.4044   23.4359 C   0  0  0  0  0  0  0  0  0  0  0  0
   -3.8153  -15.5742   23.7247 O   0  0  0  0  0  0  0  0  0  0  0  0
   -3.0219  -15.9390   24.7579 C   0  0  0  0  0  0  0  0  0  0  0  0
   -3.2005  -17.0473   25.2615 O   0  0  0  0  0  0  0  0  0  0  0  0
   -1.9305  -14.8354   25.3794 C   0  0  0  0  0  0  0  0  0  0  0  0
   -2.0059  -15.4984   27.2944 C   0  0  0  0  0  0  0  0  0  0  0  0
   -1.6434  -17.0278   27.9573 C   0  0  0  0  0  0  0  0  0  0  0  0
   -1.2731  -17.0189   29.3048 C   0  0  0  0  0  0  0  0  0  0  0  0
   -0.8970  -18.2626   29.7054 N   0  0  0  0  0  0  0  0  0  0  0  0
   -1.1273  -19.1698   28.7076 C   0  0  0  0  0  0  0  0  0  0  0  0
   -0.9870  -20.5714   28.7653 C   0  0  0  0  0  0  0  0  0  0  0  0
   -1.2940  -21.3149   27.6325 C   0  0  0  0  0  0  0  0  0  0  0  0
   -1.7200  -20.6653   26.4859 C   0  0  0  0  0  0  0  0  0  0  0  0
   -1.8703  -19.2648   26.4619 C   0  0  0  0  0  0  0  0  0  0  0  0
   -1.5844  -18.4497   27.5840 C   0  0  0  0  0  0  0  0  0  0  0  0
   -0.3393  -14.1178   24.4442 N   0  0  0  0  0  0  0  0  0  0  0  0
    1.2849  -13.2718   25.1428 C   0  0  0  0  0  0  0  0  0  0  0  0
    1.4871  -13.2215   26.3126 O   0  0  0  0  0  0  0  0  0  0  0  0
    2.5166  -12.3101   23.7703 C   0  0  0  0  0  0  0  0  0  0  0  0
    3.3394  -10.6783   22.9493 N   0  0  0  0  0  0  0  0  0  0  0  0
    2.9104   -8.7749   22.8743 C   0  0  0  0  0  0  0  0  0  0  0  0
    4.2807   -8.1821   23.0611 C   0  0  0  0  0  0  0  0  0  0  0  0
    4.8010   -9.6168   23.6562 N   0  0  0  0  0  0  0  0  0  0  0  0
    5.0588  -10.6076   22.7926 C   0  0  0  0  0  0  0  0  0  0  0  0
    7.0889  -11.0538   23.5243 S   0  0  0  0  0  0  0  0  0  0  0  0
    7.0353  -11.7194   25.1652 C   0  0  0  0  0  0  0  0  0  0  0  0
    7.6204  -11.9845   22.5434 O   0  0  0  0  0  0  0  0  0  0  0  0
    7.9205   -9.8584   23.6947 O   0  0  0  0  0  0  0  0  0  0  0  0
   -4.7685  -17.0433   22.5742 H   0  0  0  0  0  0  0  0  0  0  0  0
   -5.8061  -15.7472   23.1601 H   0  0  0  0  0  0  0  0  0  0  0  0
   -5.2935  -17.0064   24.2924 H   0  0  0  0  0  0  0  0  0  0  0  0
   -2.3835  -13.8684   25.5877 H   0  0  0  0  0  0  0  0  0  0  0  0
   -1.3847  -14.8536   27.8860 H   0  0  0  0  0  0  0  0  0  0  0  0
   -2.8836  -15.4084   27.8898 H   0  0  0  0  0  0  0  0  0  0  0  0
   -1.2179  -16.1914   30.0006 H   0  0  0  0  0  0  0  0  0  0  0  0
   -0.5797  -18.5052   30.6336 H   0  0  0  0  0  0  0  0  0  0  0  0
   -0.6614  -21.0646   29.6771 H   0  0  0  0  0  0  0  0  0  0  0  0
   -1.2031  -22.3970   27.6508 H   0  0  0  0  0  0  0  0  0  0  0  0
   -1.9780  -21.2446   25.6027 H   0  0  0  0  0  0  0  0  0  0  0  0
   -2.2788  -18.8573   25.5563 H   0  0  0  0  0  0  0  0  0  0  0  0
   -0.3753  -13.9916   23.4510 H   0  0  0  0  0  0  0  0  0  0  0  0
    1.6998  -11.8675   23.2297 H   0  0  0  0  0  0  0  0  0  0  0  0
    3.1417  -12.9867   23.2317 H   0  0  0  0  0  0  0  0  0  0  0  0
    2.0348   -8.5810   22.2196 H   0  0  0  0  0  0  0  0  0  0  0  0
    4.6827   -7.3073   23.5769 H   0  0  0  0  0  0  0  0  0  0  0  0
    7.9613  -12.2811   25.3173 H   0  0  0  0  0  0  0  0  0  0  0  0
    7.0386  -10.8874   25.8743 H   0  0  0  0  0  0  0  0  0  0  0  0
    6.1939  -12.3584   25.3764 H   0  0  0  0  0  0  0  0  0  0  0  0
  1  2  1  0
  2  3  1  0
  3  4  2  0
  3  5  1  0
  5  6  1  0
  6  7  1  0
  7  8  2  0
  8  9  1  0
  9 10  1  0
 10 11  2  0
 11 12  1  0
 12 13  2  0
 13 14  1  0
 14 15  2  0
  5 16  1  0
 16 17  1  0
 17 18  2  0
 17 19  1  0
 19 20  1  0
 20 21  1  0
 21 22  2  0
 22 23  1  0
 23 24  2  0
 24 25  1  0
 25 26  1  0
 25 27  2  0
 25 28  2  0
 15  7  1  0
 24 20  1  0
 15 10  1  0
  1 29  1  0
  1 30  1  0
  1 31  1  0
  5 32  1  0
  6 33  1  0
  6 34  1  0
  8 35  1  0
  9 36  1  0
 11 37  1  0
 12 38  1  0
 13 39  1  0
 14 40  1  0
 16 41  1  0
 19 42  1  0
 19 43  1  0
 21 44  1  0
 22 45  1  0
 26 46  1  0
 26 47  1  0
 26 48  1  0
M  END
>  <Energy>  (1261) 
919.31889846263346

>  <compound_id>  (1261) 
62389

>  <target_id>  (1261) 
1

>  <reference_id>  (1261) 
93

>  <inspiration_ids>  (1261) 
[35, 93]

>  <energy_score>  (1261) 
785.7977417653283

>  <distance_score>  (1261) 
12.984582984778502

>  <path>  (1261) 
/opt/xchem-fragalysis-2/maxwin/BulkDock/SCRATCH/511021/C62389-P93/C62389-P93.minimised.mol

>  <scratch_subdir>  (1261) 
/opt/xchem-fragalysis-2/maxwin/BulkDock/SCRATCH/511021/C62389-P93

>  <fragmenstein_runtime>  (1261) 
67.65458583831787

>  <fragmenstein_outcome>  (1261) 
too moved

>  <fragmenstein_mode>  (1261) 
expansion

>  <fragmenstein_error>  (1261) 


$$$$
C46545-P35
     RDKit          3D

 47 49  0  0  0  0  0  0  0  0999 V2000
   -0.0571  -14.2708   24.0409 C   0  0  0  0  0  0  0  0  0  0  0  0
    1.6118  -15.0898   23.4196 C   0  0  0  0  0  0  0  0  0  0  0  0
    3.2978  -16.1686   23.1943 N   0  0  0  0  0  0  0  0  0  0  0  0
    2.4189  -17.5034   24.6760 C   0  0  0  0  0  0  0  0  0  0  0  0
    0.6715  -18.6686   25.2686 C   0  0  0  0  0  0  0  0  0  0  0  0
   -0.4939  -17.9228   25.9563 C   0  0  0  0  0  0  0  0  0  0  0  0
   -0.1225  -17.5696   27.1357 N   0  0  0  0  0  0  0  0  0  0  0  0
   -1.3354  -17.8622   27.1299 C   0  0  0  0  0  0  0  0  0  0  0  0
   -0.8337  -18.9327   26.4689 N   0  0  0  0  0  0  0  0  0  0  0  0
   -2.1661  -20.0461   26.5812 C   0  0  0  0  0  0  0  0  0  0  0  0
    4.5634  -15.1115   23.1983 C   0  0  0  0  0  0  0  0  0  0  0  0
    5.0223  -14.9727   24.2827 O   0  0  0  0  0  0  0  0  0  0  0  0
    5.1443  -14.0301   21.2176 C   0  0  0  0  0  0  0  0  0  0  0  0
    4.8763  -12.6616   20.8315 C   0  0  0  0  0  0  0  0  0  0  0  0
    6.0214  -11.7428   20.5008 C   0  0  0  0  0  0  0  0  0  0  0  0
    6.8484  -11.9161   19.4089 C   0  0  0  0  0  0  0  0  0  0  0  0
    6.6091  -13.0980   18.7681 C   0  0  0  0  0  0  0  0  0  0  0  0
    5.8812  -14.0781   19.5834 C   0  0  0  0  0  0  0  0  0  0  0  0
    7.2201  -13.4734   17.4408 C   0  0  0  0  0  0  0  0  0  0  0  0
    7.7089  -12.3057   16.5688 C   0  0  0  0  0  0  0  0  0  0  0  0
    9.0271  -11.7129   17.0606 C   0  0  0  0  0  0  0  0  0  0  0  0
    9.0994  -11.4780   18.4991 N   0  0  0  0  0  0  0  0  0  0  0  0
    7.8849  -10.8913   19.0505 C   0  0  0  0  0  0  0  0  0  0  0  0
   -0.9775  -14.9527   24.0681 H   0  0  0  0  0  0  0  0  0  0  0  0
   -0.6671  -13.8366   24.8250 H   0  0  0  0  0  0  0  0  0  0  0  0
   -0.3111  -13.8047   23.1080 H   0  0  0  0  0  0  0  0  0  0  0  0
    0.8463  -14.9198   22.3611 H   0  0  0  0  0  0  0  0  0  0  0  0
    2.3671  -14.2148   23.3230 H   0  0  0  0  0  0  0  0  0  0  0  0
    2.9476  -18.4081   24.3261 H   0  0  0  0  0  0  0  0  0  0  0  0
    3.0188  -17.4861   25.6355 H   0  0  0  0  0  0  0  0  0  0  0  0
   -1.5968  -17.5880   25.4131 H   0  0  0  0  0  0  0  0  0  0  0  0
   -2.3510  -17.5152   27.3256 H   0  0  0  0  0  0  0  0  0  0  0  0
   -2.5619  -20.2470   25.5856 H   0  0  0  0  0  0  0  0  0  0  0  0
   -1.8343  -20.8573   27.2280 H   0  0  0  0  0  0  0  0  0  0  0  0
   -2.9119  -19.5309   27.1585 H   0  0  0  0  0  0  0  0  0  0  0  0
    4.2537  -12.7330   19.9215 H   0  0  0  0  0  0  0  0  0  0  0  0
    6.2658  -10.9605   21.2161 H   0  0  0  0  0  0  0  0  0  0  0  0
    5.9779  -15.0994   19.1459 H   0  0  0  0  0  0  0  0  0  0  0  0
    8.0419  -14.1790   17.6147 H   0  0  0  0  0  0  0  0  0  0  0  0
    6.4501  -14.0092   16.8710 H   0  0  0  0  0  0  0  0  0  0  0  0
    6.9346  -11.5310   16.5023 H   0  0  0  0  0  0  0  0  0  0  0  0
    7.8645  -12.6733   15.5468 H   0  0  0  0  0  0  0  0  0  0  0  0
    9.8443  -12.3943   16.7960 H   0  0  0  0  0  0  0  0  0  0  0  0
    9.2185  -10.7817   16.5168 H   0  0  0  0  0  0  0  0  0  0  0  0
    9.9110  -10.9092   18.7116 H   0  0  0  0  0  0  0  0  0  0  0  0
    8.1774  -10.3651   19.9680 H   0  0  0  0  0  0  0  0  0  0  0  0
    7.4397  -10.1419   18.3989 H   0  0  0  0  0  0  0  0  0  0  0  0
  1  2  1  0
  2  3  1  0
  3  4  1  0
  4  5  1  0
  5  6  2  0
  6  7  1  0
  7  8  2  0
  8  9  1  0
  9 10  1  0
  3 11  1  0
 11 12  2  0
 11 13  1  0
 13 14  2  0
 14 15  1  0
 15 16  2  0
 16 17  1  0
 17 18  2  0
 17 19  1  0
 19 20  1  0
 20 21  1  0
 21 22  1  0
 22 23  1  0
  9  5  1  0
 18 13  1  0
 23 16  1  0
  1 24  1  0
  1 25  1  0
  1 26  1  0
  2 27  1  0
  2 28  1  0
  4 29  1  0
  4 30  1  0
  6 31  1  0
  8 32  1  0
 10 33  1  0
 10 34  1  0
 10 35  1  0
 14 36  1  0
 15 37  1  0
 18 38  1  0
 19 39  1  0
 19 40  1  0
 20 41  1  0
 20 42  1  0
 21 43  1  0
 21 44  1  0
 22 45  1  0
 23 46  1  0
 23 47  1  0
M  END
>  <Energy>  (1262) 
1603.7062565427807

>  <compound_id>  (1262) 
46545

>  <target_id>  (1262) 
1

>  <reference_id>  (1262) 
35

>  <inspiration_ids>  (1262) 
[35, 146]

>  <energy_score>  (1262) 
1525.443234582681

>  <distance_score>  (1262) 
13.182555213149291

>  <path>  (1262) 
/opt/xchem-fragalysis-2/maxwin/BulkDock/SCRATCH/511021/C46545-P35/C46545-P35.minimised.mol

>  <scratch_subdir>  (1262) 
/opt/xchem-fragalysis-2/maxwin/BulkDock/SCRATCH/511021/C46545-P35

>  <fragmenstein_runtime>  (1262) 
33.15617394447327

>  <fragmenstein_outcome>  (1262) 
too moved

>  <fragmenstein_mode>  (1262) 
expansion

>  <fragmenstein_error>  (1262) 


$$$$
C46545-P146
     RDKit          3D

 47 49  0  0  0  0  0  0  0  0999 V2000
    0.8214  -11.9298   23.1166 C   0  0  0  0  0  0  0  0  0  0  0  0
    0.2819  -12.9539   23.9461 C   0  0  0  0  0  0  0  0  0  0  0  0
    1.2189  -12.9667   25.0274 N   0  0  0  0  0  0  0  0  0  0  0  0
   -0.5674  -13.0978   26.1833 C   0  0  0  0  0  0  0  0  0  0  0  0
   -1.2786  -14.2569   27.6434 C   0  0  0  0  0  0  0  0  0  0  0  0
   -1.4339  -15.7246   27.8845 C   0  0  0  0  0  0  0  0  0  0  0  0
   -1.6902  -16.1301   29.1606 N   0  0  0  0  0  0  0  0  0  0  0  0
   -1.8085  -15.0203   29.8147 C   0  0  0  0  0  0  0  0  0  0  0  0
   -1.6189  -13.8508   29.0009 N   0  0  0  0  0  0  0  0  0  0  0  0
   -2.3717  -12.5701   29.3405 C   0  0  0  0  0  0  0  0  0  0  0  0
    2.4817  -11.5676   24.7996 C   0  0  0  0  0  0  0  0  0  0  0  0
    2.1941  -10.5722   25.3054 O   0  0  0  0  0  0  0  0  0  0  0  0
    3.9339  -11.3339   23.9839 C   0  0  0  0  0  0  0  0  0  0  0  0
    3.8437   -9.8682   23.8857 C   0  0  0  0  0  0  0  0  0  0  0  0
    4.7942   -8.8135   23.7913 C   0  0  0  0  0  0  0  0  0  0  0  0
    6.0702   -9.2099   23.6005 C   0  0  0  0  0  0  0  0  0  0  0  0
    6.4383  -10.3875   24.1655 C   0  0  0  0  0  0  0  0  0  0  0  0
    5.3502  -11.2487   24.5065 C   0  0  0  0  0  0  0  0  0  0  0  0
    7.8782  -10.7380   24.4435 C   0  0  0  0  0  0  0  0  0  0  0  0
    8.9517  -10.3093   23.4321 C   0  0  0  0  0  0  0  0  0  0  0  0
    8.4898  -10.3311   21.9801 C   0  0  0  0  0  0  0  0  0  0  0  0
    7.4300   -9.3906   21.6517 N   0  0  0  0  0  0  0  0  0  0  0  0
    6.9278   -8.4706   22.6864 C   0  0  0  0  0  0  0  0  0  0  0  0
    0.6500  -11.2455   23.8760 H   0  0  0  0  0  0  0  0  0  0  0  0
    1.8631  -12.0321   22.9082 H   0  0  0  0  0  0  0  0  0  0  0  0
    0.3666  -11.3900   22.3202 H   0  0  0  0  0  0  0  0  0  0  0  0
   -0.6497  -12.7121   24.2529 H   0  0  0  0  0  0  0  0  0  0  0  0
    0.2113  -13.9205   23.4625 H   0  0  0  0  0  0  0  0  0  0  0  0
   -1.3986  -12.3376   26.4541 H   0  0  0  0  0  0  0  0  0  0  0  0
   -1.3745  -13.5359   25.5584 H   0  0  0  0  0  0  0  0  0  0  0  0
   -1.3193  -16.5276   27.1580 H   0  0  0  0  0  0  0  0  0  0  0  0
   -2.1175  -14.9222   30.8481 H   0  0  0  0  0  0  0  0  0  0  0  0
   -2.8608  -12.2014   28.4313 H   0  0  0  0  0  0  0  0  0  0  0  0
   -1.7050  -11.7782   29.6766 H   0  0  0  0  0  0  0  0  0  0  0  0
   -3.0985  -12.7938   30.1285 H   0  0  0  0  0  0  0  0  0  0  0  0
    2.8827   -9.3773   23.8455 H   0  0  0  0  0  0  0  0  0  0  0  0
    4.4406   -7.8119   23.5640 H   0  0  0  0  0  0  0  0  0  0  0  0
    5.6796  -12.0209   25.2169 H   0  0  0  0  0  0  0  0  0  0  0  0
    7.9603  -11.8207   24.5558 H   0  0  0  0  0  0  0  0  0  0  0  0
    8.1403  -10.3264   25.4269 H   0  0  0  0  0  0  0  0  0  0  0  0
    9.3385   -9.3207   23.7054 H   0  0  0  0  0  0  0  0  0  0  0  0
    9.8127  -10.9818   23.5411 H   0  0  0  0  0  0  0  0  0  0  0  0
    8.1689  -11.3392   21.7002 H   0  0  0  0  0  0  0  0  0  0  0  0
    9.3574  -10.1096   21.3460 H   0  0  0  0  0  0  0  0  0  0  0  0
    7.5406   -8.9533   20.7373 H   0  0  0  0  0  0  0  0  0  0  0  0
    6.3629   -7.6756   22.1826 H   0  0  0  0  0  0  0  0  0  0  0  0
    7.6400   -7.9730   23.3520 H   0  0  0  0  0  0  0  0  0  0  0  0
  1  2  1  0
  2  3  1  0
  3  4  1  0
  4  5  1  0
  5  6  2  0
  6  7  1  0
  7  8  2  0
  8  9  1  0
  9 10  1  0
  3 11  1  0
 11 12  2  0
 11 13  1  0
 13 14  2  0
 14 15  1  0
 15 16  2  0
 16 17  1  0
 17 18  2  0
 17 19  1  0
 19 20  1  0
 20 21  1  0
 21 22  1  0
 22 23  1  0
  9  5  1  0
 18 13  1  0
 23 16  1  0
  1 24  1  0
  1 25  1  0
  1 26  1  0
  2 27  1  0
  2 28  1  0
  4 29  1  0
  4 30  1  0
  6 31  1  0
  8 32  1  0
 10 33  1  0
 10 34  1  0
 10 35  1  0
 14 36  1  0
 15 37  1  0
 18 38  1  0
 19 39  1  0
 19 40  1  0
 20 41  1  0
 20 42  1  0
 21 43  1  0
 21 44  1  0
 22 45  1  0
 23 46  1  0
 23 47  1  0
M  END
>  <Energy>  (1263) 
635.08544045378187

>  <compound_id>  (1263) 
46545

>  <target_id>  (1263) 
1

>  <reference_id>  (1263) 
146

>  <inspiration_ids>  (1263) 
[35, 146]

>  <energy_score>  (1263) 
556.8224184936616

>  <distance_score>  (1263) 
14.299775370495016

>  <path>  (1263) 
/opt/xchem-fragalysis-2/maxwin/BulkDock/SCRATCH/511021/C46545-P146/C46545-P146.minimised.mol

>  <scratch_subdir>  (1263) 
/opt/xchem-fragalysis-2/maxwin/BulkDock/SCRATCH/511021/C46545-P146

>  <fragmenstein_runtime>  (1263) 
23.20161747932434

>  <fragmenstein_outcome>  (1263) 
too moved

>  <fragmenstein_mode>  (1263) 
expansion

>  <fragmenstein_error>  (1263) 


$$$$
C46547-P35
     RDKit          3D

 44 46  0  0  0  0  0  0  0  0999 V2000
    3.0456  -14.5679   21.5714 C   0  0  0  0  0  0  0  0  0  0  0  0
    3.6584  -15.9334   22.9422 C   0  0  0  0  0  0  0  0  0  0  0  0
    3.7945  -15.3503   23.9016 N   0  0  0  0  0  0  0  0  0  0  0  0
    2.8265  -17.3412   24.5112 C   0  0  0  0  0  0  0  0  0  0  0  0
    1.0379  -18.4963   24.7885 C   0  0  0  0  0  0  0  0  0  0  0  0
    0.5899  -18.6131   26.1836 C   0  0  0  0  0  0  0  0  0  0  0  0
    0.8893  -17.7406   27.1907 N   0  0  0  0  0  0  0  0  0  0  0  0
   -0.3579  -17.6296   27.0518 C   0  0  0  0  0  0  0  0  0  0  0  0
   -0.5287  -18.1083   25.8154 N   0  0  0  0  0  0  0  0  0  0  0  0
   -1.9836  -18.5443   25.9544 C   0  0  0  0  0  0  0  0  0  0  0  0
    3.0946  -13.5510   23.6554 C   0  0  0  0  0  0  0  0  0  0  0  0
    1.9431  -13.2421   23.9144 O   0  0  0  0  0  0  0  0  0  0  0  0
    4.0176  -11.9678   22.6997 C   0  0  0  0  0  0  0  0  0  0  0  0
    5.3972  -10.8343   22.9892 C   0  0  0  0  0  0  0  0  0  0  0  0
    6.5592  -10.3099   22.2308 C   0  0  0  0  0  0  0  0  0  0  0  0
    6.8438  -10.7752   20.9536 C   0  0  0  0  0  0  0  0  0  0  0  0
    5.9559  -11.7077   20.3732 C   0  0  0  0  0  0  0  0  0  0  0  0
    4.6386  -12.2046   21.0571 C   0  0  0  0  0  0  0  0  0  0  0  0
    6.3615  -12.2110   18.9841 C   0  0  0  0  0  0  0  0  0  0  0  0
    7.0203  -11.1259   18.0939 C   0  0  0  0  0  0  0  0  0  0  0  0
    7.4743   -9.9156   18.7994 N   0  0  0  0  0  0  0  0  0  0  0  0
    7.9907  -10.2710   20.1175 C   0  0  0  0  0  0  0  0  0  0  0  0
    2.0756  -14.5677   20.9991 H   0  0  0  0  0  0  0  0  0  0  0  0
    3.3336  -13.5841   21.5616 H   0  0  0  0  0  0  0  0  0  0  0  0
    2.6973  -14.9961   20.5416 H   0  0  0  0  0  0  0  0  0  0  0  0
    4.6183  -15.5364   23.2836 H   0  0  0  0  0  0  0  0  0  0  0  0
    3.8914  -16.9529   23.0031 H   0  0  0  0  0  0  0  0  0  0  0  0
    3.1968  -18.1773   23.9476 H   0  0  0  0  0  0  0  0  0  0  0  0
    3.2484  -17.5308   25.5301 H   0  0  0  0  0  0  0  0  0  0  0  0
    0.2322  -19.5859   26.2855 H   0  0  0  0  0  0  0  0  0  0  0  0
   -1.1925  -17.0739   27.4100 H   0  0  0  0  0  0  0  0  0  0  0  0
   -2.3611  -19.4626   25.5160 H   0  0  0  0  0  0  0  0  0  0  0  0
   -2.4474  -17.5915   25.7225 H   0  0  0  0  0  0  0  0  0  0  0  0
   -2.1731  -18.7991   26.9921 H   0  0  0  0  0  0  0  0  0  0  0  0
    5.8798  -10.9303   23.9888 H   0  0  0  0  0  0  0  0  0  0  0  0
    7.2679   -9.6716   22.7533 H   0  0  0  0  0  0  0  0  0  0  0  0
    4.2194  -12.9152   20.3522 H   0  0  0  0  0  0  0  0  0  0  0  0
    7.0817  -13.0236   19.1437 H   0  0  0  0  0  0  0  0  0  0  0  0
    5.5055  -12.6495   18.4598 H   0  0  0  0  0  0  0  0  0  0  0  0
    7.8663  -11.5711   17.5564 H   0  0  0  0  0  0  0  0  0  0  0  0
    6.3069  -10.8188   17.3196 H   0  0  0  0  0  0  0  0  0  0  0  0
    6.6404   -9.3433   18.9592 H   0  0  0  0  0  0  0  0  0  0  0  0
    8.4307   -9.3811   20.5669 H   0  0  0  0  0  0  0  0  0  0  0  0
    8.7859  -11.0237   20.0566 H   0  0  0  0  0  0  0  0  0  0  0  0
  1  2  1  0
  2  3  1  0
  3  4  1  0
  4  5  1  0
  5  6  2  0
  6  7  1  0
  7  8  2  0
  8  9  1  0
  9 10  1  0
  3 11  1  0
 11 12  2  0
 11 13  1  0
 13 14  2  0
 14 15  1  0
 15 16  2  0
 16 17  1  0
 17 18  2  0
 17 19  1  0
 19 20  1  0
 20 21  1  0
 21 22  1  0
  9  5  1  0
 18 13  1  0
 22 16  1  0
  1 23  1  0
  1 24  1  0
  1 25  1  0
  2 26  1  0
  2 27  1  0
  4 28  1  0
  4 29  1  0
  6 30  1  0
  8 31  1  0
 10 32  1  0
 10 33  1  0
 10 34  1  0
 14 35  1  0
 15 36  1  0
 18 37  1  0
 19 38  1  0
 19 39  1  0
 20 40  1  0
 20 41  1  0
 21 42  1  0
 22 43  1  0
 22 44  1  0
M  END
>  <Energy>  (1264) 
1572.2535126010664

>  <compound_id>  (1264) 
46547

>  <target_id>  (1264) 
1

>  <reference_id>  (1264) 
35

>  <inspiration_ids>  (1264) 
[35, 146]

>  <energy_score>  (1264) 
1510.828855408549

>  <distance_score>  (1264) 
13.321649946993078

>  <path>  (1264) 
/opt/xchem-fragalysis-2/maxwin/BulkDock/SCRATCH/511021/C46547-P35/C46547-P35.minimised.mol

>  <scratch_subdir>  (1264) 
/opt/xchem-fragalysis-2/maxwin/BulkDock/SCRATCH/511021/C46547-P35

>  <fragmenstein_runtime>  (1264) 
31.19596838951111

>  <fragmenstein_outcome>  (1264) 
too moved

>  <fragmenstein_mode>  (1264) 
expansion

>  <fragmenstein_error>  (1264) 


$$$$
C46547-P146
     RDKit          3D

 44 46  0  0  0  0  0  0  0  0999 V2000
    4.4090  -14.0262   25.3828 C   0  0  0  0  0  0  0  0  0  0  0  0
    3.8044  -14.6795   23.9795 C   0  0  0  0  0  0  0  0  0  0  0  0
    4.3348  -15.3311   22.9421 N   0  0  0  0  0  0  0  0  0  0  0  0
    3.9667  -17.0004   24.0631 C   0  0  0  0  0  0  0  0  0  0  0  0
    4.0986  -19.0620   23.9669 C   0  0  0  0  0  0  0  0  0  0  0  0
    4.5322  -19.9961   24.9910 C   0  0  0  0  0  0  0  0  0  0  0  0
    4.9340  -21.2380   24.5744 N   0  0  0  0  0  0  0  0  0  0  0  0
    4.5733  -21.2518   23.3259 C   0  0  0  0  0  0  0  0  0  0  0  0
    3.7102  -20.1863   23.0362 N   0  0  0  0  0  0  0  0  0  0  0  0
    2.4539  -20.6729   22.4089 C   0  0  0  0  0  0  0  0  0  0  0  0
    3.5393  -14.7903   21.3872 C   0  0  0  0  0  0  0  0  0  0  0  0
    2.5431  -15.2634   20.7762 O   0  0  0  0  0  0  0  0  0  0  0  0
    4.3649  -13.4556   20.3560 C   0  0  0  0  0  0  0  0  0  0  0  0
    5.3281  -12.5068   20.6311 C   0  0  0  0  0  0  0  0  0  0  0  0
    6.5603  -11.9801   20.0053 C   0  0  0  0  0  0  0  0  0  0  0  0
    6.8913  -12.3842   18.7546 C   0  0  0  0  0  0  0  0  0  0  0  0
    6.0355  -13.3487   18.2273 C   0  0  0  0  0  0  0  0  0  0  0  0
    4.8643  -13.8818   19.0115 C   0  0  0  0  0  0  0  0  0  0  0  0
    6.4753  -13.7965   16.8485 C   0  0  0  0  0  0  0  0  0  0  0  0
    6.9075  -12.5974   15.9428 C   0  0  0  0  0  0  0  0  0  0  0  0
    7.5580  -11.4565   16.6042 N   0  0  0  0  0  0  0  0  0  0  0  0
    8.0111  -11.7848   17.9487 C   0  0  0  0  0  0  0  0  0  0  0  0
    5.2713  -14.5364   25.7544 H   0  0  0  0  0  0  0  0  0  0  0  0
    4.9492  -13.1074   25.2604 H   0  0  0  0  0  0  0  0  0  0  0  0
    3.7122  -13.8854   26.2024 H   0  0  0  0  0  0  0  0  0  0  0  0
    3.4514  -13.7351   23.5295 H   0  0  0  0  0  0  0  0  0  0  0  0
    4.8706  -14.7317   24.0646 H   0  0  0  0  0  0  0  0  0  0  0  0
    3.2126  -17.4283   24.9016 H   0  0  0  0  0  0  0  0  0  0  0  0
    4.6496  -16.4528   24.7844 H   0  0  0  0  0  0  0  0  0  0  0  0
    4.5820  -19.8022   26.0576 H   0  0  0  0  0  0  0  0  0  0  0  0
    4.7113  -22.0678   22.6290 H   0  0  0  0  0  0  0  0  0  0  0  0
    1.7190  -19.9193   22.1531 H   0  0  0  0  0  0  0  0  0  0  0  0
    2.7507  -21.1634   21.4732 H   0  0  0  0  0  0  0  0  0  0  0  0
    1.9945  -21.4373   23.0371 H   0  0  0  0  0  0  0  0  0  0  0  0
    4.9320  -11.8618   21.4308 H   0  0  0  0  0  0  0  0  0  0  0  0
    7.0809  -11.1568   20.4843 H   0  0  0  0  0  0  0  0  0  0  0  0
    4.3798  -14.7665   18.5846 H   0  0  0  0  0  0  0  0  0  0  0  0
    7.3374  -14.4640   16.9850 H   0  0  0  0  0  0  0  0  0  0  0  0
    5.7124  -14.3956   16.3497 H   0  0  0  0  0  0  0  0  0  0  0  0
    6.0164  -12.2069   15.4374 H   0  0  0  0  0  0  0  0  0  0  0  0
    7.5646  -12.9854   15.1553 H   0  0  0  0  0  0  0  0  0  0  0  0
    8.3113  -11.0744   16.0376 H   0  0  0  0  0  0  0  0  0  0  0  0
    8.8552  -12.4843   17.9173 H   0  0  0  0  0  0  0  0  0  0  0  0
    8.3687  -10.8678   18.4295 H   0  0  0  0  0  0  0  0  0  0  0  0
  1  2  1  0
  2  3  1  0
  3  4  1  0
  4  5  1  0
  5  6  2  0
  6  7  1  0
  7  8  2  0
  8  9  1  0
  9 10  1  0
  3 11  1  0
 11 12  2  0
 11 13  1  0
 13 14  2  0
 14 15  1  0
 15 16  2  0
 16 17  1  0
 17 18  2  0
 17 19  1  0
 19 20  1  0
 20 21  1  0
 21 22  1  0
  9  5  1  0
 18 13  1  0
 22 16  1  0
  1 23  1  0
  1 24  1  0
  1 25  1  0
  2 26  1  0
  2 27  1  0
  4 28  1  0
  4 29  1  0
  6 30  1  0
  8 31  1  0
 10 32  1  0
 10 33  1  0
 10 34  1  0
 14 35  1  0
 15 36  1  0
 18 37  1  0
 19 38  1  0
 19 39  1  0
 20 40  1  0
 20 41  1  0
 21 42  1  0
 22 43  1  0
 22 44  1  0
M  END
>  <Energy>  (1265) 
630.4716256394089

>  <compound_id>  (1265) 
46547

>  <target_id>  (1265) 
1

>  <reference_id>  (1265) 
146

>  <inspiration_ids>  (1265) 
[35, 146]

>  <energy_score>  (1265) 
569.046968446882

>  <distance_score>  (1265) 
15.16310926015826

>  <path>  (1265) 
/opt/xchem-fragalysis-2/maxwin/BulkDock/SCRATCH/511021/C46547-P146/C46547-P146.minimised.mol

>  <scratch_subdir>  (1265) 
/opt/xchem-fragalysis-2/maxwin/BulkDock/SCRATCH/511021/C46547-P146

>  <fragmenstein_runtime>  (1265) 
27.51307511329651

>  <fragmenstein_outcome>  (1265) 
too moved

>  <fragmenstein_mode>  (1265) 
expansion

>  <fragmenstein_error>  (1265) 


$$$$
C46552-P35
     RDKit          3D

 44 46  0  0  0  0  0  0  0  0999 V2000
   -2.6728  -15.4598   24.6307 C   0  0  0  0  0  0  0  0  0  0  0  0
   -1.5504  -14.4024   25.1664 C   0  0  0  0  0  0  0  0  0  0  0  0
    0.0293  -14.0529   23.9011 N   0  0  0  0  0  0  0  0  0  0  0  0
    1.7273  -13.1477   24.1559 C   0  0  0  0  0  0  0  0  0  0  0  0
    1.9089  -12.8195   25.2390 O   0  0  0  0  0  0  0  0  0  0  0  0
    3.1264  -12.5862   22.8007 C   0  0  0  0  0  0  0  0  0  0  0  0
    3.9432  -11.4038   22.5854 C   0  0  0  0  0  0  0  0  0  0  0  0
    5.4581  -10.8179   21.9627 C   0  0  0  0  0  0  0  0  0  0  0  0
    6.0493  -11.4371   20.8680 C   0  0  0  0  0  0  0  0  0  0  0  0
    5.1581  -12.4589   20.4177 C   0  0  0  0  0  0  0  0  0  0  0  0
    3.7515  -12.9521   21.3465 C   0  0  0  0  0  0  0  0  0  0  0  0
    5.4674  -13.0429   19.0214 C   0  0  0  0  0  0  0  0  0  0  0  0
    6.4836  -12.3772   18.0384 C   0  0  0  0  0  0  0  0  0  0  0  0
    6.5041  -10.9076   17.9673 N   0  0  0  0  0  0  0  0  0  0  0  0
    7.3659  -10.3285   18.9994 C   0  0  0  0  0  0  0  0  0  0  0  0
    7.3885  -11.0496   20.3412 C   0  0  0  0  0  0  0  0  0  0  0  0
   -1.9120  -15.1030   27.0621 C   0  0  0  0  0  0  0  0  0  0  0  0
   -2.4906  -14.6711   28.3823 C   0  0  0  0  0  0  0  0  0  0  0  0
   -2.6623  -15.5630   29.4136 N   0  0  0  0  0  0  0  0  0  0  0  0
   -2.3420  -16.7052   28.9222 C   0  0  0  0  0  0  0  0  0  0  0  0
   -2.0222  -16.6377   27.5891 N   0  0  0  0  0  0  0  0  0  0  0  0
   -1.7118  -17.9186   26.9765 C   0  0  0  0  0  0  0  0  0  0  0  0
   -3.1172  -15.2708   23.6696 H   0  0  0  0  0  0  0  0  0  0  0  0
   -3.5099  -15.6991   25.2123 H   0  0  0  0  0  0  0  0  0  0  0  0
   -2.3882  -16.4632   24.8587 H   0  0  0  0  0  0  0  0  0  0  0  0
   -1.2027  -15.2190   24.5470 H   0  0  0  0  0  0  0  0  0  0  0  0
   -0.0923  -14.2269   22.9076 H   0  0  0  0  0  0  0  0  0  0  0  0
    3.3976  -10.5561   22.9803 H   0  0  0  0  0  0  0  0  0  0  0  0
    5.9047   -9.9678   22.4865 H   0  0  0  0  0  0  0  0  0  0  0  0
    3.1894  -13.7507   20.8997 H   0  0  0  0  0  0  0  0  0  0  0  0
    5.8386  -14.0625   19.1207 H   0  0  0  0  0  0  0  0  0  0  0  0
    4.5131  -13.0943   18.5105 H   0  0  0  0  0  0  0  0  0  0  0  0
    7.4939  -12.7642   18.2250 H   0  0  0  0  0  0  0  0  0  0  0  0
    6.2339  -12.7427   17.0341 H   0  0  0  0  0  0  0  0  0  0  0  0
    5.5331  -10.6147   18.1674 H   0  0  0  0  0  0  0  0  0  0  0  0
    7.0492   -9.2930   19.1656 H   0  0  0  0  0  0  0  0  0  0  0  0
    8.3903  -10.2914   18.6183 H   0  0  0  0  0  0  0  0  0  0  0  0
    7.8990  -10.4078   21.0710 H   0  0  0  0  0  0  0  0  0  0  0  0
    8.0076  -11.9540   20.2838 H   0  0  0  0  0  0  0  0  0  0  0  0
   -2.9127  -13.7030   28.6388 H   0  0  0  0  0  0  0  0  0  0  0  0
   -2.3493  -17.6371   29.4734 H   0  0  0  0  0  0  0  0  0  0  0  0
   -0.6331  -17.9941   26.9699 H   0  0  0  0  0  0  0  0  0  0  0  0
   -2.1318  -18.7417   27.5614 H   0  0  0  0  0  0  0  0  0  0  0  0
   -2.0741  -17.9787   25.9712 H   0  0  0  0  0  0  0  0  0  0  0  0
  1  2  1  0
  2  3  1  0
  3  4  1  0
  4  5  2  0
  4  6  1  0
  6  7  2  0
  7  8  1  0
  8  9  2  0
  9 10  1  0
 10 11  2  0
 10 12  1  0
 12 13  1  0
 13 14  1  0
 14 15  1  0
 15 16  1  0
  2 17  1  0
 17 18  2  0
 18 19  1  0
 19 20  2  0
 20 21  1  0
 21 22  1  0
 11  6  1  0
 21 17  1  0
 16  9  1  0
  1 23  1  0
  1 24  1  0
  1 25  1  0
  2 26  1  0
  3 27  1  0
  7 28  1  0
  8 29  1  0
 11 30  1  0
 12 31  1  0
 12 32  1  0
 13 33  1  0
 13 34  1  0
 14 35  1  0
 15 36  1  0
 15 37  1  0
 16 38  1  0
 16 39  1  0
 18 40  1  0
 20 41  1  0
 22 42  1  0
 22 43  1  0
 22 44  1  0
M  END
>  <Energy>  (1266) 
742.02551434973986

>  <compound_id>  (1266) 
46552

>  <target_id>  (1266) 
1

>  <reference_id>  (1266) 
35

>  <inspiration_ids>  (1266) 
[35, 146]

>  <energy_score>  (1266) 
671.540632545376

>  <distance_score>  (1266) 
13.476399454924746

>  <path>  (1266) 
/opt/xchem-fragalysis-2/maxwin/BulkDock/SCRATCH/511021/C46552-P35/C46552-P35.minimised.mol

>  <scratch_subdir>  (1266) 
/opt/xchem-fragalysis-2/maxwin/BulkDock/SCRATCH/511021/C46552-P35

>  <fragmenstein_runtime>  (1266) 
37.23503279685974

>  <fragmenstein_outcome>  (1266) 
too moved

>  <fragmenstein_mode>  (1266) 
expansion

>  <fragmenstein_error>  (1266) 


$$$$
C46552-P146
     RDKit          3D

 44 46  0  0  0  0  0  0  0  0999 V2000
    2.7875  -16.1708   27.6155 C   0  0  0  0  0  0  0  0  0  0  0  0
    3.2005  -14.7336   27.9167 C   0  0  0  0  0  0  0  0  0  0  0  0
    4.3373  -13.7829   26.6345 N   0  0  0  0  0  0  0  0  0  0  0  0
    5.6794  -12.5224   26.8953 C   0  0  0  0  0  0  0  0  0  0  0  0
    5.9674  -12.0491   27.9872 O   0  0  0  0  0  0  0  0  0  0  0  0
    6.5988  -11.8500   25.7672 C   0  0  0  0  0  0  0  0  0  0  0  0
    7.9718  -11.8838   26.1687 C   0  0  0  0  0  0  0  0  0  0  0  0
    9.0383  -11.2260   25.5105 C   0  0  0  0  0  0  0  0  0  0  0  0
    8.8290  -10.4459   24.3780 C   0  0  0  0  0  0  0  0  0  0  0  0
    7.4986  -10.3465   23.9387 C   0  0  0  0  0  0  0  0  0  0  0  0
    6.3927  -10.9631   24.6927 C   0  0  0  0  0  0  0  0  0  0  0  0
    7.1847   -9.6454   22.6336 C   0  0  0  0  0  0  0  0  0  0  0  0
    8.1846   -9.9050   21.4918 C   0  0  0  0  0  0  0  0  0  0  0  0
    9.3499   -9.0281   21.4701 N   0  0  0  0  0  0  0  0  0  0  0  0
    9.8565   -8.6523   22.7780 C   0  0  0  0  0  0  0  0  0  0  0  0
   10.0601   -9.8364   23.7204 C   0  0  0  0  0  0  0  0  0  0  0  0
    2.5092  -15.0457   29.7869 C   0  0  0  0  0  0  0  0  0  0  0  0
    2.7372  -15.9052   30.9425 C   0  0  0  0  0  0  0  0  0  0  0  0
    2.1189  -15.6506   32.1480 N   0  0  0  0  0  0  0  0  0  0  0  0
    0.9908  -15.1732   31.7583 C   0  0  0  0  0  0  0  0  0  0  0  0
    0.9404  -15.3176   30.3855 N   0  0  0  0  0  0  0  0  0  0  0  0
   -0.4231  -15.6297   29.8443 C   0  0  0  0  0  0  0  0  0  0  0  0
    1.6987  -16.0610   27.5566 H   0  0  0  0  0  0  0  0  0  0  0  0
    3.0318  -16.8179   26.7530 H   0  0  0  0  0  0  0  0  0  0  0  0
    3.1955  -16.6916   28.4526 H   0  0  0  0  0  0  0  0  0  0  0  0
    2.4618  -14.1526   27.3253 H   0  0  0  0  0  0  0  0  0  0  0  0
    4.2325  -13.9568   25.6429 H   0  0  0  0  0  0  0  0  0  0  0  0
    8.2330  -12.4610   27.0617 H   0  0  0  0  0  0  0  0  0  0  0  0
   10.0419  -11.3503   25.9164 H   0  0  0  0  0  0  0  0  0  0  0  0
    5.3711  -10.7551   24.3767 H   0  0  0  0  0  0  0  0  0  0  0  0
    6.9967   -8.5791   22.7979 H   0  0  0  0  0  0  0  0  0  0  0  0
    6.2538  -10.0983   22.3144 H   0  0  0  0  0  0  0  0  0  0  0  0
    7.6687   -9.7597   20.5359 H   0  0  0  0  0  0  0  0  0  0  0  0
    8.5101  -10.9530   21.5060 H   0  0  0  0  0  0  0  0  0  0  0  0
   10.0900   -9.4346   20.8987 H   0  0  0  0  0  0  0  0  0  0  0  0
   10.8154   -8.1464   22.6303 H   0  0  0  0  0  0  0  0  0  0  0  0
    9.2055   -7.9046   23.2458 H   0  0  0  0  0  0  0  0  0  0  0  0
   10.7189   -9.4838   24.5261 H   0  0  0  0  0  0  0  0  0  0  0  0
   10.6050  -10.6368   23.2025 H   0  0  0  0  0  0  0  0  0  0  0  0
    3.2695  -16.8439   30.9459 H   0  0  0  0  0  0  0  0  0  0  0  0
    0.1455  -14.8899   32.3708 H   0  0  0  0  0  0  0  0  0  0  0  0
   -1.0790  -14.7895   30.0986 H   0  0  0  0  0  0  0  0  0  0  0  0
   -0.7939  -16.5111   30.3801 H   0  0  0  0  0  0  0  0  0  0  0  0
   -0.4095  -15.8127   28.7726 H   0  0  0  0  0  0  0  0  0  0  0  0
  1  2  1  0
  2  3  1  0
  3  4  1  0
  4  5  2  0
  4  6  1  0
  6  7  2  0
  7  8  1  0
  8  9  2  0
  9 10  1  0
 10 11  2  0
 10 12  1  0
 12 13  1  0
 13 14  1  0
 14 15  1  0
 15 16  1  0
  2 17  1  0
 17 18  2  0
 18 19  1  0
 19 20  2  0
 20 21  1  0
 21 22  1  0
 11  6  1  0
 21 17  1  0
 16  9  1  0
  1 23  1  0
  1 24  1  0
  1 25  1  0
  2 26  1  0
  3 27  1  0
  7 28  1  0
  8 29  1  0
 11 30  1  0
 12 31  1  0
 12 32  1  0
 13 33  1  0
 13 34  1  0
 14 35  1  0
 15 36  1  0
 15 37  1  0
 16 38  1  0
 16 39  1  0
 18 40  1  0
 20 41  1  0
 22 42  1  0
 22 43  1  0
 22 44  1  0
M  END
>  <Energy>  (1267) 
455.12747113615336

>  <compound_id>  (1267) 
46552

>  <target_id>  (1267) 
1

>  <reference_id>  (1267) 
146

>  <inspiration_ids>  (1267) 
[35, 146]

>  <energy_score>  (1267) 
384.6425893317852

>  <distance_score>  (1267) 
14.264699283618013

>  <path>  (1267) 
/opt/xchem-fragalysis-2/maxwin/BulkDock/SCRATCH/511021/C46552-P146/C46552-P146.minimised.mol

>  <scratch_subdir>  (1267) 
/opt/xchem-fragalysis-2/maxwin/BulkDock/SCRATCH/511021/C46552-P146

>  <fragmenstein_runtime>  (1267) 
27.404421091079712

>  <fragmenstein_outcome>  (1267) 
too moved

>  <fragmenstein_mode>  (1267) 
expansion

>  <fragmenstein_error>  (1267) 


$$$$
C46553-P35
     RDKit          3D

 44 46  0  0  0  0  0  0  0  0999 V2000
    1.2433  -13.1815   26.1301 C   0  0  0  0  0  0  0  0  0  0  0  0
    0.8550  -13.7956   24.8370 C   0  0  0  0  0  0  0  0  0  0  0  0
    2.2610  -12.7212   24.1503 N   0  0  0  0  0  0  0  0  0  0  0  0
    2.2897  -11.6437   23.0349 C   0  0  0  0  0  0  0  0  0  0  0  0
    1.3668  -11.3831   22.3395 O   0  0  0  0  0  0  0  0  0  0  0  0
    3.7828  -10.3774   22.6616 C   0  0  0  0  0  0  0  0  0  0  0  0
    3.5602   -8.9098   22.2359 C   0  0  0  0  0  0  0  0  0  0  0  0
    4.5961   -8.0334   21.6991 C   0  0  0  0  0  0  0  0  0  0  0  0
    5.9013   -8.5429   21.4738 C   0  0  0  0  0  0  0  0  0  0  0  0
    6.3117   -9.5955   22.2741 C   0  0  0  0  0  0  0  0  0  0  0  0
    5.2842  -10.4232   22.7919 C   0  0  0  0  0  0  0  0  0  0  0  0
    7.7295  -10.0935   22.4891 C   0  0  0  0  0  0  0  0  0  0  0  0
    8.4222  -10.7436   21.2970 C   0  0  0  0  0  0  0  0  0  0  0  0
    7.6899  -10.5499   19.9934 C   0  0  0  0  0  0  0  0  0  0  0  0
    7.6919   -9.1231   19.7488 N   0  0  0  0  0  0  0  0  0  0  0  0
    6.4506   -8.4001   20.0528 C   0  0  0  0  0  0  0  0  0  0  0  0
   -0.9286  -14.0970   24.6144 C   0  0  0  0  0  0  0  0  0  0  0  0
   -1.5085  -15.2941   24.3458 C   0  0  0  0  0  0  0  0  0  0  0  0
   -2.4956  -15.9188   25.3512 N   0  0  0  0  0  0  0  0  0  0  0  0
   -2.2707  -14.9263   26.2510 C   0  0  0  0  0  0  0  0  0  0  0  0
   -2.2993  -14.2226   25.1918 N   0  0  0  0  0  0  0  0  0  0  0  0
   -3.5896  -15.0508   23.9084 C   0  0  0  0  0  0  0  0  0  0  0  0
    2.0755  -13.6753   26.6090 H   0  0  0  0  0  0  0  0  0  0  0  0
    1.1868  -12.0990   26.2285 H   0  0  0  0  0  0  0  0  0  0  0  0
    0.4908  -13.3446   26.7647 H   0  0  0  0  0  0  0  0  0  0  0  0
    0.8952  -14.2208   23.8266 H   0  0  0  0  0  0  0  0  0  0  0  0
    3.1316  -12.6880   24.6403 H   0  0  0  0  0  0  0  0  0  0  0  0
    2.5424   -8.5442   22.0673 H   0  0  0  0  0  0  0  0  0  0  0  0
    4.2502   -7.1508   21.1591 H   0  0  0  0  0  0  0  0  0  0  0  0
    5.7624  -11.1289   23.4737 H   0  0  0  0  0  0  0  0  0  0  0  0
    8.3396   -9.3242   22.9588 H   0  0  0  0  0  0  0  0  0  0  0  0
    7.7363  -10.8481   23.2895 H   0  0  0  0  0  0  0  0  0  0  0  0
    8.5241  -11.8193   21.4762 H   0  0  0  0  0  0  0  0  0  0  0  0
    9.4521  -10.3675   21.2292 H   0  0  0  0  0  0  0  0  0  0  0  0
    6.6932  -11.0039   19.9754 H   0  0  0  0  0  0  0  0  0  0  0  0
    8.2645  -11.0497   19.2037 H   0  0  0  0  0  0  0  0  0  0  0  0
    7.8689   -9.0421   18.7613 H   0  0  0  0  0  0  0  0  0  0  0  0
    6.5359   -7.3392   19.8073 H   0  0  0  0  0  0  0  0  0  0  0  0
    5.6881   -8.7849   19.3626 H   0  0  0  0  0  0  0  0  0  0  0  0
   -1.3918  -15.2972   23.3037 H   0  0  0  0  0  0  0  0  0  0  0  0
   -2.1118  -14.9498   27.3337 H   0  0  0  0  0  0  0  0  0  0  0  0
   -3.0672  -15.2912   23.1104 H   0  0  0  0  0  0  0  0  0  0  0  0
   -4.1116  -15.6491   24.6141 H   0  0  0  0  0  0  0  0  0  0  0  0
   -4.3815  -14.3324   23.6617 H   0  0  0  0  0  0  0  0  0  0  0  0
  1  2  1  0
  2  3  1  0
  3  4  1  0
  4  5  2  0
  4  6  1  0
  6  7  2  0
  7  8  1  0
  8  9  2  0
  9 10  1  0
 10 11  2  0
 10 12  1  0
 12 13  1  0
 13 14  1  0
 14 15  1  0
 15 16  1  0
  2 17  1  0
 17 18  2  0
 18 19  1  0
 19 20  2  0
 20 21  1  0
 21 22  1  0
 11  6  1  0
 21 17  1  0
 16  9  1  0
  1 23  1  0
  1 24  1  0
  1 25  1  0
  2 26  1  0
  3 27  1  0
  7 28  1  0
  8 29  1  0
 11 30  1  0
 12 31  1  0
 12 32  1  0
 13 33  1  0
 13 34  1  0
 14 35  1  0
 14 36  1  0
 15 37  1  0
 16 38  1  0
 16 39  1  0
 18 40  1  0
 20 41  1  0
 22 42  1  0
 22 43  1  0
 22 44  1  0
M  END
>  <Energy>  (1268) 
675.40738443608905

>  <compound_id>  (1268) 
46553

>  <target_id>  (1268) 
1

>  <reference_id>  (1268) 
35

>  <inspiration_ids>  (1268) 
[35, 146]

>  <energy_score>  (1268) 
631.9596579188781

>  <distance_score>  (1268) 
13.74463122584495

>  <path>  (1268) 
/opt/xchem-fragalysis-2/maxwin/BulkDock/SCRATCH/511021/C46553-P35/C46553-P35.minimised.mol

>  <scratch_subdir>  (1268) 
/opt/xchem-fragalysis-2/maxwin/BulkDock/SCRATCH/511021/C46553-P35

>  <fragmenstein_runtime>  (1268) 
32.341397523880005

>  <fragmenstein_outcome>  (1268) 
too moved

>  <fragmenstein_mode>  (1268) 
expansion

>  <fragmenstein_error>  (1268) 


$$$$
C46553-P146
     RDKit          3D

 44 46  0  0  0  0  0  0  0  0999 V2000
    9.5907  -21.6312   22.7362 C   0  0  0  0  0  0  0  0  0  0  0  0
    8.3808  -20.7088   23.0186 C   0  0  0  0  0  0  0  0  0  0  0  0
    8.5058  -19.4771   22.0617 N   0  0  0  0  0  0  0  0  0  0  0  0
    9.7340  -18.8301   21.4274 C   0  0  0  0  0  0  0  0  0  0  0  0
   10.8915  -19.1669   21.4500 O   0  0  0  0  0  0  0  0  0  0  0  0
    9.5871  -17.4213   20.6397 C   0  0  0  0  0  0  0  0  0  0  0  0
    8.4789  -16.9583   19.9521 C   0  0  0  0  0  0  0  0  0  0  0  0
    8.4513  -15.6955   19.2699 C   0  0  0  0  0  0  0  0  0  0  0  0
    9.5209  -14.7716   19.2684 C   0  0  0  0  0  0  0  0  0  0  0  0
   10.6852  -15.1872   19.9245 C   0  0  0  0  0  0  0  0  0  0  0  0
   10.7007  -16.4978   20.5740 C   0  0  0  0  0  0  0  0  0  0  0  0
   11.8766  -14.2513   20.0590 C   0  0  0  0  0  0  0  0  0  0  0  0
   12.4752  -13.6788   18.7641 C   0  0  0  0  0  0  0  0  0  0  0  0
   11.4959  -13.0240   17.7983 C   0  0  0  0  0  0  0  0  0  0  0  0
   10.3602  -12.4387   18.5008 N   0  0  0  0  0  0  0  0  0  0  0  0
    9.2629  -13.4141   18.6105 C   0  0  0  0  0  0  0  0  0  0  0  0
    7.0477  -21.6985   23.3047 C   0  0  0  0  0  0  0  0  0  0  0  0
    7.1213  -23.0895   23.5523 C   0  0  0  0  0  0  0  0  0  0  0  0
    5.9351  -23.6908   23.8890 N   0  0  0  0  0  0  0  0  0  0  0  0
    5.0675  -22.7253   23.8243 C   0  0  0  0  0  0  0  0  0  0  0  0
    5.6681  -21.5145   23.5500 N   0  0  0  0  0  0  0  0  0  0  0  0
    4.8346  -20.3409   23.5953 C   0  0  0  0  0  0  0  0  0  0  0  0
   10.5346  -21.0825   22.7644 H   0  0  0  0  0  0  0  0  0  0  0  0
    9.4993  -22.1065   21.7540 H   0  0  0  0  0  0  0  0  0  0  0  0
    9.7009  -22.4101   23.4961 H   0  0  0  0  0  0  0  0  0  0  0  0
    8.5937  -20.2714   23.9983 H   0  0  0  0  0  0  0  0  0  0  0  0
    7.6980  -18.8803   21.9122 H   0  0  0  0  0  0  0  0  0  0  0  0
    7.5684  -17.5295   19.9712 H   0  0  0  0  0  0  0  0  0  0  0  0
    7.5115  -15.4192   18.7836 H   0  0  0  0  0  0  0  0  0  0  0  0
   11.6192  -16.7995   21.0847 H   0  0  0  0  0  0  0  0  0  0  0  0
   11.5829  -13.4318   20.7287 H   0  0  0  0  0  0  0  0  0  0  0  0
   12.6827  -14.7779   20.5861 H   0  0  0  0  0  0  0  0  0  0  0  0
   13.2378  -12.9433   19.0522 H   0  0  0  0  0  0  0  0  0  0  0  0
   13.0050  -14.4775   18.2296 H   0  0  0  0  0  0  0  0  0  0  0  0
   11.1763  -13.7320   17.0230 H   0  0  0  0  0  0  0  0  0  0  0  0
   12.0291  -12.2280   17.2637 H   0  0  0  0  0  0  0  0  0  0  0  0
   10.0056  -11.6579   17.9465 H   0  0  0  0  0  0  0  0  0  0  0  0
    8.8602  -13.5972   17.6051 H   0  0  0  0  0  0  0  0  0  0  0  0
    8.4663  -12.9280   19.1877 H   0  0  0  0  0  0  0  0  0  0  0  0
    8.0118  -23.7040   23.5147 H   0  0  0  0  0  0  0  0  0  0  0  0
    4.0013  -22.8262   23.9701 H   0  0  0  0  0  0  0  0  0  0  0  0
    4.5911  -20.1529   24.6335 H   0  0  0  0  0  0  0  0  0  0  0  0
    3.9324  -20.5003   23.0021 H   0  0  0  0  0  0  0  0  0  0  0  0
    5.4369  -19.5176   23.2231 H   0  0  0  0  0  0  0  0  0  0  0  0
  1  2  1  0
  2  3  1  0
  3  4  1  0
  4  5  2  0
  4  6  1  0
  6  7  2  0
  7  8  1  0
  8  9  2  0
  9 10  1  0
 10 11  2  0
 10 12  1  0
 12 13  1  0
 13 14  1  0
 14 15  1  0
 15 16  1  0
  2 17  1  0
 17 18  2  0
 18 19  1  0
 19 20  2  0
 20 21  1  0
 21 22  1  0
 11  6  1  0
 21 17  1  0
 16  9  1  0
  1 23  1  0
  1 24  1  0
  1 25  1  0
  2 26  1  0
  3 27  1  0
  7 28  1  0
  8 29  1  0
 11 30  1  0
 12 31  1  0
 12 32  1  0
 13 33  1  0
 13 34  1  0
 14 35  1  0
 14 36  1  0
 15 37  1  0
 16 38  1  0
 16 39  1  0
 18 40  1  0
 20 41  1  0
 22 42  1  0
 22 43  1  0
 22 44  1  0
M  END
>  <Energy>  (1269) 
83.882192275468299

>  <compound_id>  (1269) 
46553

>  <target_id>  (1269) 
1

>  <reference_id>  (1269) 
146

>  <inspiration_ids>  (1269) 
[35, 146]

>  <energy_score>  (1269) 
40.43446575825817

>  <distance_score>  (1269) 
15.655669442754633

>  <path>  (1269) 
/opt/xchem-fragalysis-2/maxwin/BulkDock/SCRATCH/511021/C46553-P146/C46553-P146.minimised.mol

>  <scratch_subdir>  (1269) 
/opt/xchem-fragalysis-2/maxwin/BulkDock/SCRATCH/511021/C46553-P146

>  <fragmenstein_runtime>  (1269) 
27.915493488311768

>  <fragmenstein_outcome>  (1269) 
too moved

>  <fragmenstein_mode>  (1269) 
expansion

>  <fragmenstein_error>  (1269) 


$$$$
C46561-P35
     RDKit          3D

 35 37  0  0  0  0  0  0  0  0999 V2000
    6.8116   -8.1259   19.8377 C   0  0  0  0  0  0  0  0  0  0  0  0
    7.0198  -10.2855   19.9410 C   0  0  0  0  0  0  0  0  0  0  0  0
    6.5354  -11.2529   19.1524 N   0  0  0  0  0  0  0  0  0  0  0  0
    5.6984  -12.2850   19.4876 C   0  0  0  0  0  0  0  0  0  0  0  0
    6.3375  -12.6388   20.5230 N   0  0  0  0  0  0  0  0  0  0  0  0
    5.9274  -11.4504   20.8548 C   0  0  0  0  0  0  0  0  0  0  0  0
    4.3046  -11.7780   21.6768 C   0  0  0  0  0  0  0  0  0  0  0  0
    4.1061  -10.9681   22.5020 O   0  0  0  0  0  0  0  0  0  0  0  0
    3.4138  -13.0737   21.3446 N   0  0  0  0  0  0  0  0  0  0  0  0
    2.0350  -13.5458   21.9257 C   0  0  0  0  0  0  0  0  0  0  0  0
    1.6342  -14.6364   22.9940 C   0  0  0  0  0  0  0  0  0  0  0  0
    2.4683  -15.1585   23.9903 C   0  0  0  0  0  0  0  0  0  0  0  0
    1.9747  -16.0397   24.9974 C   0  0  0  0  0  0  0  0  0  0  0  0
    0.6284  -16.4063   25.0349 C   0  0  0  0  0  0  0  0  0  0  0  0
   -0.2366  -15.9018   24.0838 C   0  0  0  0  0  0  0  0  0  0  0  0
    0.2434  -15.0280   23.0848 C   0  0  0  0  0  0  0  0  0  0  0  0
   -1.6246  -16.3925   24.3849 C   0  0  0  0  0  0  0  0  0  0  0  0
   -1.4735  -17.4751   25.3976 N   0  0  0  0  0  0  0  0  0  0  0  0
   -0.1344  -17.2556   26.0092 C   0  0  0  0  0  0  0  0  0  0  0  0
    5.8110   -7.8361   19.3577 H   0  0  0  0  0  0  0  0  0  0  0  0
    7.5702   -7.6209   19.2735 H   0  0  0  0  0  0  0  0  0  0  0  0
    6.8242   -7.5233   20.7490 H   0  0  0  0  0  0  0  0  0  0  0  0
    7.3274  -11.7110   19.5074 H   0  0  0  0  0  0  0  0  0  0  0  0
    4.7515  -12.6781   19.1180 H   0  0  0  0  0  0  0  0  0  0  0  0
    3.8848  -13.6303   20.6332 H   0  0  0  0  0  0  0  0  0  0  0  0
    1.5940  -12.6428   22.3594 H   0  0  0  0  0  0  0  0  0  0  0  0
    1.4720  -13.8097   21.0219 H   0  0  0  0  0  0  0  0  0  0  0  0
    3.5118  -14.8734   24.0461 H   0  0  0  0  0  0  0  0  0  0  0  0
    2.6585  -16.4026   25.7617 H   0  0  0  0  0  0  0  0  0  0  0  0
   -0.4671  -14.6145   22.3698 H   0  0  0  0  0  0  0  0  0  0  0  0
   -2.2256  -15.5796   24.8056 H   0  0  0  0  0  0  0  0  0  0  0  0
   -2.1134  -16.7815   23.4865 H   0  0  0  0  0  0  0  0  0  0  0  0
   -1.4084  -18.3488   24.8750 H   0  0  0  0  0  0  0  0  0  0  0  0
   -0.2484  -16.7252   26.9603 H   0  0  0  0  0  0  0  0  0  0  0  0
    0.3652  -18.2138   26.1817 H   0  0  0  0  0  0  0  0  0  0  0  0
  1  2  1  0
  2  3  1  0
  3  4  1  0
  4  5  2  0
  5  6  1  0
  6  7  1  0
  7  8  2  0
  7  9  1  0
  9 10  1  0
 10 11  1  0
 11 12  2  0
 12 13  1  0
 13 14  2  0
 14 15  1  0
 15 16  2  0
 15 17  1  0
 17 18  1  0
 18 19  1  0
  6  2  2  0
 16 11  1  0
 19 14  1  0
  1 20  1  0
  1 21  1  0
  1 22  1  0
  3 23  1  0
  4 24  1  0
  9 25  1  0
 10 26  1  0
 10 27  1  0
 12 28  1  0
 13 29  1  0
 16 30  1  0
 17 31  1  0
 17 32  1  0
 18 33  1  0
 19 34  1  0
 19 35  1  0
M  END
>  <Energy>  (1270) 
521.20872768349898

>  <compound_id>  (1270) 
46561

>  <target_id>  (1270) 
1

>  <reference_id>  (1270) 
35

>  <inspiration_ids>  (1270) 
[35, 146]

>  <energy_score>  (1270) 
462.3343458319797

>  <distance_score>  (1270) 
16.662944284407534

>  <path>  (1270) 
/opt/xchem-fragalysis-2/maxwin/BulkDock/SCRATCH/511021/C46561-P35/C46561-P35.minimised.mol

>  <scratch_subdir>  (1270) 
/opt/xchem-fragalysis-2/maxwin/BulkDock/SCRATCH/511021/C46561-P35

>  <fragmenstein_runtime>  (1270) 
14.173938989639282

>  <fragmenstein_outcome>  (1270) 
too moved

>  <fragmenstein_mode>  (1270) 
expansion

>  <fragmenstein_error>  (1270) 


$$$$
C46561-P146
     RDKit          3D

 35 37  0  0  0  0  0  0  0  0999 V2000
    4.0633  -14.1997   18.0650 C   0  0  0  0  0  0  0  0  0  0  0  0
    2.6994  -13.6469   18.2308 C   0  0  0  0  0  0  0  0  0  0  0  0
    2.4320  -12.4328   17.6376 N   0  0  0  0  0  0  0  0  0  0  0  0
    1.2078  -12.0375   18.0751 C   0  0  0  0  0  0  0  0  0  0  0  0
    0.6780  -12.9194   18.9063 N   0  0  0  0  0  0  0  0  0  0  0  0
    1.5450  -14.0142   18.9587 C   0  0  0  0  0  0  0  0  0  0  0  0
    1.3058  -15.2832   19.8060 C   0  0  0  0  0  0  0  0  0  0  0  0
    2.0202  -16.2068   19.5407 O   0  0  0  0  0  0  0  0  0  0  0  0
    0.3055  -15.1257   20.8691 N   0  0  0  0  0  0  0  0  0  0  0  0
   -0.0591  -16.0195   22.0020 C   0  0  0  0  0  0  0  0  0  0  0  0
   -1.4782  -16.3293   22.5465 C   0  0  0  0  0  0  0  0  0  0  0  0
   -2.6509  -16.1793   21.7937 C   0  0  0  0  0  0  0  0  0  0  0  0
   -3.9022  -16.6274   22.2943 C   0  0  0  0  0  0  0  0  0  0  0  0
   -3.9861  -17.2517   23.5416 C   0  0  0  0  0  0  0  0  0  0  0  0
   -2.8472  -17.4122   24.3117 C   0  0  0  0  0  0  0  0  0  0  0  0
   -1.6077  -16.9560   23.8363 C   0  0  0  0  0  0  0  0  0  0  0  0
   -3.2153  -18.0934   25.5974 C   0  0  0  0  0  0  0  0  0  0  0  0
   -4.6043  -18.6021   25.4101 N   0  0  0  0  0  0  0  0  0  0  0  0
   -5.1644  -17.8185   24.2745 C   0  0  0  0  0  0  0  0  0  0  0  0
    4.7589  -13.7413   18.7718 H   0  0  0  0  0  0  0  0  0  0  0  0
    4.0520  -15.2814   18.2163 H   0  0  0  0  0  0  0  0  0  0  0  0
    4.4123  -14.0213   17.0437 H   0  0  0  0  0  0  0  0  0  0  0  0
    3.1037  -11.8717   17.1248 H   0  0  0  0  0  0  0  0  0  0  0  0
    0.7695  -11.0893   17.7949 H   0  0  0  0  0  0  0  0  0  0  0  0
   -0.1731  -14.2387   20.7455 H   0  0  0  0  0  0  0  0  0  0  0  0
    0.3993  -16.9882   21.7664 H   0  0  0  0  0  0  0  0  0  0  0  0
    0.5075  -15.6023   22.8441 H   0  0  0  0  0  0  0  0  0  0  0  0
   -2.6058  -15.7402   20.7989 H   0  0  0  0  0  0  0  0  0  0  0  0
   -4.7945  -16.5013   21.6862 H   0  0  0  0  0  0  0  0  0  0  0  0
   -0.7179  -17.1126   24.4440 H   0  0  0  0  0  0  0  0  0  0  0  0
   -2.5372  -18.9230   25.8196 H   0  0  0  0  0  0  0  0  0  0  0  0
   -3.1969  -17.3738   26.4224 H   0  0  0  0  0  0  0  0  0  0  0  0
   -4.5099  -19.5623   25.0762 H   0  0  0  0  0  0  0  0  0  0  0  0
   -5.7642  -18.4672   23.6287 H   0  0  0  0  0  0  0  0  0  0  0  0
   -5.7908  -17.0085   24.6623 H   0  0  0  0  0  0  0  0  0  0  0  0
  1  2  1  0
  2  3  1  0
  3  4  1  0
  4  5  2  0
  5  6  1  0
  6  7  1  0
  7  8  2  0
  7  9  1  0
  9 10  1  0
 10 11  1  0
 11 12  2  0
 12 13  1  0
 13 14  2  0
 14 15  1  0
 15 16  2  0
 15 17  1  0
 17 18  1  0
 18 19  1  0
  6  2  2  0
 16 11  1  0
 19 14  1  0
  1 20  1  0
  1 21  1  0
  1 22  1  0
  3 23  1  0
  4 24  1  0
  9 25  1  0
 10 26  1  0
 10 27  1  0
 12 28  1  0
 13 29  1  0
 16 30  1  0
 17 31  1  0
 17 32  1  0
 18 33  1  0
 19 34  1  0
 19 35  1  0
M  END
>  <Energy>  (1271) 
52.022291853468467

>  <compound_id>  (1271) 
46561

>  <target_id>  (1271) 
1

>  <reference_id>  (1271) 
146

>  <inspiration_ids>  (1271) 
[35, 146]

>  <energy_score>  (1271) 
-6.852089998046836

>  <distance_score>  (1271) 
17.118879440319972

>  <path>  (1271) 
/opt/xchem-fragalysis-2/maxwin/BulkDock/SCRATCH/511021/C46561-P146/C46561-P146.minimised.mol

>  <scratch_subdir>  (1271) 
/opt/xchem-fragalysis-2/maxwin/BulkDock/SCRATCH/511021/C46561-P146

>  <fragmenstein_runtime>  (1271) 
12.608490705490112

>  <fragmenstein_outcome>  (1271) 
too moved

>  <fragmenstein_mode>  (1271) 
expansion

>  <fragmenstein_error>  (1271) 


$$$$
C46562-P35
     RDKit          3D

 38 40  0  0  0  0  0  0  0  0999 V2000
   -3.4539  -16.5622   19.7112 C   0  0  0  0  0  0  0  0  0  0  0  0
   -2.0936  -16.6682   19.0861 C   0  0  0  0  0  0  0  0  0  0  0  0
   -1.4324  -15.7804   18.3344 N   0  0  0  0  0  0  0  0  0  0  0  0
   -0.2515  -16.4034   17.8871 C   0  0  0  0  0  0  0  0  0  0  0  0
    0.8617  -15.9160   16.9080 C   0  0  0  0  0  0  0  0  0  0  0  0
    1.3477  -16.8349   16.3099 O   0  0  0  0  0  0  0  0  0  0  0  0
    1.1727  -14.4808   16.8674 N   0  0  0  0  0  0  0  0  0  0  0  0
    2.1167  -13.7107   16.0018 C   0  0  0  0  0  0  0  0  0  0  0  0
    2.8211  -12.3524   16.2908 C   0  0  0  0  0  0  0  0  0  0  0  0
    2.1306  -11.2185   16.7264 C   0  0  0  0  0  0  0  0  0  0  0  0
    2.7293   -9.9353   16.7516 C   0  0  0  0  0  0  0  0  0  0  0  0
    4.0212   -9.7206   16.2628 C   0  0  0  0  0  0  0  0  0  0  0  0
    4.7434  -10.8218   15.7967 C   0  0  0  0  0  0  0  0  0  0  0  0
    4.1582  -12.1176   15.8363 C   0  0  0  0  0  0  0  0  0  0  0  0
    6.1169  -10.5367   15.2332 C   0  0  0  0  0  0  0  0  0  0  0  0
    6.0905   -9.2220   14.4263 C   0  0  0  0  0  0  0  0  0  0  0  0
    5.4538   -8.0500   15.0638 N   0  0  0  0  0  0  0  0  0  0  0  0
    4.6638   -8.3577   16.2620 C   0  0  0  0  0  0  0  0  0  0  0  0
   -0.2727  -17.7026   18.4045 C   0  0  0  0  0  0  0  0  0  0  0  0
   -1.3612  -17.8179   19.2193 N   0  0  0  0  0  0  0  0  0  0  0  0
   -3.6407  -17.3627   20.4326 H   0  0  0  0  0  0  0  0  0  0  0  0
   -4.2148  -16.6340   18.9273 H   0  0  0  0  0  0  0  0  0  0  0  0
   -3.5705  -15.5918   20.2020 H   0  0  0  0  0  0  0  0  0  0  0  0
    0.5065  -13.9820   17.4434 H   0  0  0  0  0  0  0  0  0  0  0  0
    2.9069  -14.4358   15.7681 H   0  0  0  0  0  0  0  0  0  0  0  0
    1.5679  -13.5673   15.0619 H   0  0  0  0  0  0  0  0  0  0  0  0
    1.0861  -11.3059   17.0185 H   0  0  0  0  0  0  0  0  0  0  0  0
    2.1416   -9.0994   17.1271 H   0  0  0  0  0  0  0  0  0  0  0  0
    4.7290  -12.9568   15.4384 H   0  0  0  0  0  0  0  0  0  0  0  0
    6.4292  -11.3530   14.5718 H   0  0  0  0  0  0  0  0  0  0  0  0
    6.8328  -10.4900   16.0590 H   0  0  0  0  0  0  0  0  0  0  0  0
    5.5402   -9.4183   13.4955 H   0  0  0  0  0  0  0  0  0  0  0  0
    7.1067   -8.9558   14.1168 H   0  0  0  0  0  0  0  0  0  0  0  0
    4.8272   -7.6349   14.3732 H   0  0  0  0  0  0  0  0  0  0  0  0
    5.2907   -8.2765   17.1557 H   0  0  0  0  0  0  0  0  0  0  0  0
    3.8953   -7.5819   16.3643 H   0  0  0  0  0  0  0  0  0  0  0  0
    0.4180  -18.5232   18.2646 H   0  0  0  0  0  0  0  0  0  0  0  0
   -1.6157  -18.6285   19.7669 H   0  0  0  0  0  0  0  0  0  0  0  0
  1  2  1  0
  2  3  2  0
  3  4  1  0
  4  5  1  0
  5  6  2  0
  5  7  1  0
  7  8  1  0
  8  9  1  0
  9 10  2  0
 10 11  1  0
 11 12  2  0
 12 13  1  0
 13 14  2  0
 13 15  1  0
 15 16  1  0
 16 17  1  0
 17 18  1  0
  4 19  2  0
 19 20  1  0
 20  2  1  0
 14  9  1  0
 18 12  1  0
  1 21  1  0
  1 22  1  0
  1 23  1  0
  7 24  1  0
  8 25  1  0
  8 26  1  0
 10 27  1  0
 11 28  1  0
 14 29  1  0
 15 30  1  0
 15 31  1  0
 16 32  1  0
 16 33  1  0
 17 34  1  0
 18 35  1  0
 18 36  1  0
 19 37  1  0
 20 38  1  0
M  END
>  <Energy>  (1272) 
76.755821883390041

>  <compound_id>  (1272) 
46562

>  <target_id>  (1272) 
1

>  <reference_id>  (1272) 
35

>  <inspiration_ids>  (1272) 
[35, 146]

>  <energy_score>  (1272) 
6.725531848777791

>  <distance_score>  (1272) 
15.102452875027902

>  <path>  (1272) 
/opt/xchem-fragalysis-2/maxwin/BulkDock/SCRATCH/511021/C46562-P35/C46562-P35.minimised.mol

>  <scratch_subdir>  (1272) 
/opt/xchem-fragalysis-2/maxwin/BulkDock/SCRATCH/511021/C46562-P35

>  <fragmenstein_runtime>  (1272) 
21.867709398269653

>  <fragmenstein_outcome>  (1272) 
too moved

>  <fragmenstein_mode>  (1272) 
expansion

>  <fragmenstein_error>  (1272) 


$$$$
C46562-P146
     RDKit          3D

 38 40  0  0  0  0  0  0  0  0999 V2000
   -8.6522  -23.4274   33.1648 C   0  0  0  0  0  0  0  0  0  0  0  0
   -6.8023  -24.3188   33.2846 C   0  0  0  0  0  0  0  0  0  0  0  0
   -5.4580  -24.1625   33.7592 N   0  0  0  0  0  0  0  0  0  0  0  0
   -4.7840  -23.5608   32.4567 C   0  0  0  0  0  0  0  0  0  0  0  0
   -3.3177  -22.3137   31.7758 C   0  0  0  0  0  0  0  0  0  0  0  0
   -2.3329  -22.9503   31.5216 O   0  0  0  0  0  0  0  0  0  0  0  0
   -3.2413  -20.4543   31.6455 N   0  0  0  0  0  0  0  0  0  0  0  0
   -1.7663  -19.2422   31.2746 C   0  0  0  0  0  0  0  0  0  0  0  0
   -1.1679  -17.4299   30.7741 C   0  0  0  0  0  0  0  0  0  0  0  0
   -1.4228  -16.7928   29.5815 C   0  0  0  0  0  0  0  0  0  0  0  0
   -0.3722  -15.7028   29.0887 C   0  0  0  0  0  0  0  0  0  0  0  0
    1.3307  -15.3745   29.5434 C   0  0  0  0  0  0  0  0  0  0  0  0
    1.9253  -15.9474   30.4573 C   0  0  0  0  0  0  0  0  0  0  0  0
    0.2455  -16.4731   31.1236 C   0  0  0  0  0  0  0  0  0  0  0  0
    2.9353  -16.1104   28.6338 C   0  0  0  0  0  0  0  0  0  0  0  0
    3.4020  -14.5624   27.4697 C   0  0  0  0  0  0  0  0  0  0  0  0
    3.4089  -13.3912   28.1542 N   0  0  0  0  0  0  0  0  0  0  0  0
    3.0149  -14.3803   29.4207 C   0  0  0  0  0  0  0  0  0  0  0  0
   -5.5013  -24.5306   31.7988 C   0  0  0  0  0  0  0  0  0  0  0  0
   -6.2289  -25.4217   32.5923 N   0  0  0  0  0  0  0  0  0  0  0  0
   -8.6408  -22.3655   33.2268 H   0  0  0  0  0  0  0  0  0  0  0  0
   -9.1881  -23.5156   34.1282 H   0  0  0  0  0  0  0  0  0  0  0  0
   -9.3639  -23.9009   32.4941 H   0  0  0  0  0  0  0  0  0  0  0  0
   -4.1210  -20.0731   31.9723 H   0  0  0  0  0  0  0  0  0  0  0  0
   -1.1775  -19.8551   30.5821 H   0  0  0  0  0  0  0  0  0  0  0  0
   -1.2900  -19.2853   32.2630 H   0  0  0  0  0  0  0  0  0  0  0  0
   -2.3044  -16.9706   28.9768 H   0  0  0  0  0  0  0  0  0  0  0  0
   -0.8847  -15.0698   28.3569 H   0  0  0  0  0  0  0  0  0  0  0  0
    0.2677  -16.3438   32.2406 H   0  0  0  0  0  0  0  0  0  0  0  0
    3.5462  -16.9653   28.8797 H   0  0  0  0  0  0  0  0  0  0  0  0
    2.3586  -16.4227   27.7137 H   0  0  0  0  0  0  0  0  0  0  0  0
    2.4197  -14.1774   27.0918 H   0  0  0  0  0  0  0  0  0  0  0  0
    4.0609  -14.4820   26.5946 H   0  0  0  0  0  0  0  0  0  0  0  0
    4.1136  -12.7425   28.4153 H   0  0  0  0  0  0  0  0  0  0  0  0
    2.2744  -14.6222   28.6808 H   0  0  0  0  0  0  0  0  0  0  0  0
    3.1124  -13.4472   30.0825 H   0  0  0  0  0  0  0  0  0  0  0  0
   -5.4596  -24.9414   30.7362 H   0  0  0  0  0  0  0  0  0  0  0  0
   -5.7230  -26.1967   33.0137 H   0  0  0  0  0  0  0  0  0  0  0  0
  1  2  1  0
  2  3  2  0
  3  4  1  0
  4  5  1  0
  5  6  2  0
  5  7  1  0
  7  8  1  0
  8  9  1  0
  9 10  2  0
 10 11  1  0
 11 12  2  0
 12 13  1  0
 13 14  2  0
 13 15  1  0
 15 16  1  0
 16 17  1  0
 17 18  1  0
  4 19  2  0
 19 20  1  0
 20  2  1  0
 14  9  1  0
 18 12  1  0
  1 21  1  0
  1 22  1  0
  1 23  1  0
  7 24  1  0
  8 25  1  0
  8 26  1  0
 10 27  1  0
 11 28  1  0
 14 29  1  0
 15 30  1  0
 15 31  1  0
 16 32  1  0
 16 33  1  0
 17 34  1  0
 18 35  1  0
 18 36  1  0
 19 37  1  0
 20 38  1  0
M  END
>  <Energy>  (1273) 
1439.4305334210549

>  <compound_id>  (1273) 
46562

>  <target_id>  (1273) 
1

>  <reference_id>  (1273) 
146

>  <inspiration_ids>  (1273) 
[35, 146]

>  <energy_score>  (1273) 
1369.4002433864616

>  <distance_score>  (1273) 
17.05699751964337

>  <path>  (1273) 
/opt/xchem-fragalysis-2/maxwin/BulkDock/SCRATCH/511021/C46562-P146/C46562-P146.minimised.mol

>  <scratch_subdir>  (1273) 
/opt/xchem-fragalysis-2/maxwin/BulkDock/SCRATCH/511021/C46562-P146

>  <fragmenstein_runtime>  (1273) 
15.182149171829224

>  <fragmenstein_outcome>  (1273) 
too moved

>  <fragmenstein_mode>  (1273) 
expansion

>  <fragmenstein_error>  (1273) 


$$$$
C46578-P35
     RDKit          3D

 42 45  0  0  0  0  0  0  0  0999 V2000
    1.7270  -16.4655   16.8291 O   0  0  0  0  0  0  0  0  0  0  0  0
    1.9333  -16.2921   18.0035 C   0  0  0  0  0  0  0  0  0  0  0  0
    1.2019  -16.8158   19.2096 N   0  0  0  0  0  0  0  0  0  0  0  0
   -0.1051  -17.6552   19.3207 C   0  0  0  0  0  0  0  0  0  0  0  0
   -1.2361  -17.1749   20.3210 C   0  0  0  0  0  0  0  0  0  0  0  0
   -1.7175  -18.6538   20.4347 C   0  0  0  0  0  0  0  0  0  0  0  0
   -2.4395  -19.1307   21.7927 C   0  0  0  0  0  0  0  0  0  0  0  0
   -3.5251  -18.5564   22.2899 N   0  0  0  0  0  0  0  0  0  0  0  0
   -3.9257  -19.3341   23.3565 C   0  0  0  0  0  0  0  0  0  0  0  0
   -3.0755  -20.3984   23.5194 C   0  0  0  0  0  0  0  0  0  0  0  0
   -2.1318  -20.2514   22.5323 N   0  0  0  0  0  0  0  0  0  0  0  0
   -0.2244  -19.0248   20.1078 C   0  0  0  0  0  0  0  0  0  0  0  0
    3.1327  -15.2311   18.2008 C   0  0  0  0  0  0  0  0  0  0  0  0
    4.0715  -15.2030   19.2349 C   0  0  0  0  0  0  0  0  0  0  0  0
    5.1438  -14.2446   19.2639 C   0  0  0  0  0  0  0  0  0  0  0  0
    5.3273  -13.2575   18.2726 C   0  0  0  0  0  0  0  0  0  0  0  0
    4.4322  -13.2608   17.2024 C   0  0  0  0  0  0  0  0  0  0  0  0
    3.3655  -14.2337   17.1815 C   0  0  0  0  0  0  0  0  0  0  0  0
    4.5685  -12.1921   16.1266 C   0  0  0  0  0  0  0  0  0  0  0  0
    5.8980  -11.4051   16.1765 C   0  0  0  0  0  0  0  0  0  0  0  0
    6.2555  -11.0308   17.5526 N   0  0  0  0  0  0  0  0  0  0  0  0
    6.4828  -12.2684   18.3273 C   0  0  0  0  0  0  0  0  0  0  0  0
    1.6012  -16.3982   20.0518 H   0  0  0  0  0  0  0  0  0  0  0  0
   -0.5022  -17.7573   18.2994 H   0  0  0  0  0  0  0  0  0  0  0  0
   -1.9677  -16.4864   19.8874 H   0  0  0  0  0  0  0  0  0  0  0  0
   -0.8594  -16.7395   21.2415 H   0  0  0  0  0  0  0  0  0  0  0  0
   -2.3799  -18.9208   19.5972 H   0  0  0  0  0  0  0  0  0  0  0  0
   -4.8031  -19.0814   23.9377 H   0  0  0  0  0  0  0  0  0  0  0  0
   -3.0505  -21.2170   24.2229 H   0  0  0  0  0  0  0  0  0  0  0  0
   -1.3495  -20.8644   22.3555 H   0  0  0  0  0  0  0  0  0  0  0  0
   -0.1196  -19.9078   19.4666 H   0  0  0  0  0  0  0  0  0  0  0  0
    0.4358  -19.1805   20.9565 H   0  0  0  0  0  0  0  0  0  0  0  0
    4.0243  -15.9380   20.0298 H   0  0  0  0  0  0  0  0  0  0  0  0
    5.8445  -14.2965   20.0966 H   0  0  0  0  0  0  0  0  0  0  0  0
    2.6744  -14.2122   16.3358 H   0  0  0  0  0  0  0  0  0  0  0  0
    4.4673  -12.6574   15.1394 H   0  0  0  0  0  0  0  0  0  0  0  0
    3.7349  -11.4902   16.2564 H   0  0  0  0  0  0  0  0  0  0  0  0
    6.7069  -11.9995   15.7332 H   0  0  0  0  0  0  0  0  0  0  0  0
    5.8049  -10.4998   15.5667 H   0  0  0  0  0  0  0  0  0  0  0  0
    5.4503  -10.5618   17.9674 H   0  0  0  0  0  0  0  0  0  0  0  0
    6.6611  -11.9811   19.3700 H   0  0  0  0  0  0  0  0  0  0  0  0
    7.3921  -12.7665   17.9695 H   0  0  0  0  0  0  0  0  0  0  0  0
  1  2  2  0
  2  3  1  0
  3  4  1  0
  4  5  1  0
  5  6  1  0
  6  7  1  0
  7  8  2  0
  8  9  1  0
  9 10  2  0
 10 11  1  0
  6 12  1  0
  2 13  1  0
 13 14  2  0
 14 15  1  0
 15 16  2  0
 16 17  1  0
 17 18  2  0
 17 19  1  0
 19 20  1  0
 20 21  1  0
 21 22  1  0
 12  4  1  0
 18 13  1  0
 11  7  1  0
 22 16  1  0
  3 23  1  0
  4 24  1  0
  5 25  1  0
  5 26  1  0
  6 27  1  0
  9 28  1  0
 10 29  1  0
 11 30  1  0
 12 31  1  0
 12 32  1  0
 14 33  1  0
 15 34  1  0
 18 35  1  0
 19 36  1  0
 19 37  1  0
 20 38  1  0
 20 39  1  0
 21 40  1  0
 22 41  1  0
 22 42  1  0
M  END
>  <Energy>  (1274) 
74.495728833825368

>  <compound_id>  (1274) 
46578

>  <target_id>  (1274) 
1

>  <reference_id>  (1274) 
35

>  <inspiration_ids>  (1274) 
[35, 146]

>  <energy_score>  (1274) 
4.623308746015937

>  <distance_score>  (1274) 
14.854972795458695

>  <path>  (1274) 
/opt/xchem-fragalysis-2/maxwin/BulkDock/SCRATCH/511021/C46578-P35/C46578-P35.minimised.mol

>  <scratch_subdir>  (1274) 
/opt/xchem-fragalysis-2/maxwin/BulkDock/SCRATCH/511021/C46578-P35

>  <fragmenstein_runtime>  (1274) 
32.95272421836853

>  <fragmenstein_outcome>  (1274) 
too moved

>  <fragmenstein_mode>  (1274) 
expansion

>  <fragmenstein_error>  (1274) 


$$$$
C46578-P146
     RDKit          3D

 42 45  0  0  0  0  0  0  0  0999 V2000
   -4.6400  -15.6366   23.1573 O   0  0  0  0  0  0  0  0  0  0  0  0
   -3.8220  -16.0050   23.9451 C   0  0  0  0  0  0  0  0  0  0  0  0
   -3.8019  -17.1856   24.8194 N   0  0  0  0  0  0  0  0  0  0  0  0
   -4.7627  -18.3150   24.9510 C   0  0  0  0  0  0  0  0  0  0  0  0
   -4.1753  -19.7346   25.0168 C   0  0  0  0  0  0  0  0  0  0  0  0
   -4.9891  -20.0327   26.2842 C   0  0  0  0  0  0  0  0  0  0  0  0
   -6.1446  -21.1127   26.1564 C   0  0  0  0  0  0  0  0  0  0  0  0
   -7.3600  -20.9089   25.6909 N   0  0  0  0  0  0  0  0  0  0  0  0
   -8.0419  -22.0848   25.9098 C   0  0  0  0  0  0  0  0  0  0  0  0
   -7.2381  -23.0165   26.5156 C   0  0  0  0  0  0  0  0  0  0  0  0
   -6.0282  -22.3961   26.6425 N   0  0  0  0  0  0  0  0  0  0  0  0
   -5.3835  -18.5378   26.3462 C   0  0  0  0  0  0  0  0  0  0  0  0
   -2.3917  -14.8636   24.2215 C   0  0  0  0  0  0  0  0  0  0  0  0
   -1.1562  -14.3100   24.0882 C   0  0  0  0  0  0  0  0  0  0  0  0
    0.1286  -12.9036   23.6613 C   0  0  0  0  0  0  0  0  0  0  0  0
    1.3006  -13.0183   24.0666 C   0  0  0  0  0  0  0  0  0  0  0  0
    0.9063  -14.2946   23.7008 C   0  0  0  0  0  0  0  0  0  0  0  0
   -0.8566  -14.6245   23.9672 C   0  0  0  0  0  0  0  0  0  0  0  0
    2.3093  -15.3380   22.9163 C   0  0  0  0  0  0  0  0  0  0  0  0
    3.5247  -14.5091   23.0595 C   0  0  0  0  0  0  0  0  0  0  0  0
    3.5663  -13.1129   23.7354 N   0  0  0  0  0  0  0  0  0  0  0  0
    2.4692  -12.2169   23.7838 C   0  0  0  0  0  0  0  0  0  0  0  0
   -2.9120  -17.2282   25.2989 H   0  0  0  0  0  0  0  0  0  0  0  0
   -5.5359  -18.2360   24.1749 H   0  0  0  0  0  0  0  0  0  0  0  0
   -3.0913  -19.7684   25.1795 H   0  0  0  0  0  0  0  0  0  0  0  0
   -4.4046  -20.3576   24.1458 H   0  0  0  0  0  0  0  0  0  0  0  0
   -4.3171  -20.3113   27.1066 H   0  0  0  0  0  0  0  0  0  0  0  0
   -9.0771  -22.2009   25.6198 H   0  0  0  0  0  0  0  0  0  0  0  0
   -7.4115  -24.0289   26.8525 H   0  0  0  0  0  0  0  0  0  0  0  0
   -5.2026  -22.7867   27.0712 H   0  0  0  0  0  0  0  0  0  0  0  0
   -6.4554  -18.3215   26.3984 H   0  0  0  0  0  0  0  0  0  0  0  0
   -4.8845  -17.9910   27.1551 H   0  0  0  0  0  0  0  0  0  0  0  0
   -1.7955  -14.0170   25.4550 H   0  0  0  0  0  0  0  0  0  0  0  0
    0.0932  -12.0511   23.0163 H   0  0  0  0  0  0  0  0  0  0  0  0
   -0.8469  -13.2008   24.9393 H   0  0  0  0  0  0  0  0  0  0  0  0
    1.9569  -15.7333   21.9127 H   0  0  0  0  0  0  0  0  0  0  0  0
    2.9195  -16.2514   23.1147 H   0  0  0  0  0  0  0  0  0  0  0  0
    4.3220  -15.0885   23.5710 H   0  0  0  0  0  0  0  0  0  0  0  0
    3.7752  -14.6049   21.9656 H   0  0  0  0  0  0  0  0  0  0  0  0
    3.8993  -13.2237   24.6989 H   0  0  0  0  0  0  0  0  0  0  0  0
    2.5867  -11.4196   24.5105 H   0  0  0  0  0  0  0  0  0  0  0  0
    2.3410  -11.6643   22.8735 H   0  0  0  0  0  0  0  0  0  0  0  0
  1  2  2  0
  2  3  1  0
  3  4  1  0
  4  5  1  0
  5  6  1  0
  6  7  1  0
  7  8  2  0
  8  9  1  0
  9 10  2  0
 10 11  1  0
  6 12  1  0
  2 13  1  0
 13 14  2  0
 14 15  1  0
 15 16  2  0
 16 17  1  0
 17 18  2  0
 17 19  1  0
 19 20  1  0
 20 21  1  0
 21 22  1  0
 12  4  1  0
 18 13  1  0
 11  7  1  0
 22 16  1  0
  3 23  1  0
  4 24  1  0
  5 25  1  0
  5 26  1  0
  6 27  1  0
  9 28  1  0
 10 29  1  0
 11 30  1  0
 12 31  1  0
 12 32  1  0
 14 33  1  0
 15 34  1  0
 18 35  1  0
 19 36  1  0
 19 37  1  0
 20 38  1  0
 20 39  1  0
 21 40  1  0
 22 41  1  0
 22 42  1  0
M  END
>  <Energy>  (1275) 
1161.0769313590604

>  <compound_id>  (1275) 
46578

>  <target_id>  (1275) 
1

>  <reference_id>  (1275) 
146

>  <inspiration_ids>  (1275) 
[35, 146]

>  <energy_score>  (1275) 
1091.204511271238

>  <distance_score>  (1275) 
15.37566183547199

>  <path>  (1275) 
/opt/xchem-fragalysis-2/maxwin/BulkDock/SCRATCH/511021/C46578-P146/C46578-P146.minimised.mol

>  <scratch_subdir>  (1275) 
/opt/xchem-fragalysis-2/maxwin/BulkDock/SCRATCH/511021/C46578-P146

>  <fragmenstein_runtime>  (1275) 
29.9036066532135

>  <fragmenstein_outcome>  (1275) 
too moved

>  <fragmenstein_mode>  (1275) 
expansion

>  <fragmenstein_error>  (1275) 


$$$$
C21585-P20
     RDKit          3D

 35 36  0  0  0  0  0  0  0  0999 V2000
    0.8610   -6.3195   23.7252 O   0  0  0  0  0  0  0  0  0  0  0  0
    1.0369   -7.4267   23.3635 C   0  0  0  0  0  0  0  0  0  0  0  0
    2.6872   -8.1986   23.1559 N   0  0  0  0  0  0  0  0  0  0  0  0
    4.5233   -7.5039   23.5796 C   0  0  0  0  0  0  0  0  0  0  0  0
    6.1761   -6.7306   22.7860 C   0  0  0  0  0  0  0  0  0  0  0  0
    6.7683   -6.8025   21.4083 C   0  0  0  0  0  0  0  0  0  0  0  0
    7.0196   -5.3690   20.0901 C   0  0  0  0  0  0  0  0  0  0  0  0
    8.0252   -4.6487   20.8333 C   0  0  0  0  0  0  0  0  0  0  0  0
    9.9925   -5.5397   20.0694 Cl  0  0  0  0  0  0  0  0  0  0  0  0
    7.4109   -5.1819   22.9739 S   0  0  0  0  0  0  0  0  0  0  0  0
    0.1102   -8.4030   22.9117 N   0  0  0  0  0  0  0  0  0  0  0  0
   -1.3128   -8.3788   22.8467 C   0  0  0  0  0  0  0  0  0  0  0  0
   -1.8969   -7.3736   23.8957 C   0  0  0  0  0  0  0  0  0  0  0  0
   -1.6520   -6.0028   23.6023 O   0  0  0  0  0  0  0  0  0  0  0  0
   -1.7194   -7.7476   25.3748 C   0  0  0  0  0  0  0  0  0  0  0  0
   -0.7424   -7.3646   26.3926 N   0  0  0  0  0  0  0  0  0  0  0  0
   -0.8523   -6.2785   27.2482 C   0  0  0  0  0  0  0  0  0  0  0  0
   -0.6534   -6.6991   28.5369 C   0  0  0  0  0  0  0  0  0  0  0  0
   -0.4240   -8.0593   28.3862 C   0  0  0  0  0  0  0  0  0  0  0  0
   -0.2341   -8.4128   27.1180 N   0  0  0  0  0  0  0  0  0  0  0  0
    2.5796   -9.1109   22.7626 H   0  0  0  0  0  0  0  0  0  0  0  0
    4.0885   -6.7195   24.1151 H   0  0  0  0  0  0  0  0  0  0  0  0
    4.5601   -7.9579   22.6495 H   0  0  0  0  0  0  0  0  0  0  0  0
    6.6158   -7.5347   20.6483 H   0  0  0  0  0  0  0  0  0  0  0  0
    6.6982   -5.5573   19.0614 H   0  0  0  0  0  0  0  0  0  0  0  0
    0.6175   -9.2170   22.6021 H   0  0  0  0  0  0  0  0  0  0  0  0
   -1.6837   -9.3935   23.0188 H   0  0  0  0  0  0  0  0  0  0  0  0
   -1.5804   -8.0602   21.8345 H   0  0  0  0  0  0  0  0  0  0  0  0
   -2.9759   -7.4781   23.7143 H   0  0  0  0  0  0  0  0  0  0  0  0
   -0.6758   -5.8900   23.5554 H   0  0  0  0  0  0  0  0  0  0  0  0
   -1.7588   -8.8430   25.3777 H   0  0  0  0  0  0  0  0  0  0  0  0
   -2.6464   -7.4229   25.8342 H   0  0  0  0  0  0  0  0  0  0  0  0
   -1.1692   -5.3236   26.9197 H   0  0  0  0  0  0  0  0  0  0  0  0
   -0.7228   -6.1233   29.4459 H   0  0  0  0  0  0  0  0  0  0  0  0
   -0.3391   -8.8266   29.1451 H   0  0  0  0  0  0  0  0  0  0  0  0
  1  2  2  0
  2  3  1  0
  3  4  1  0
  4  5  1  0
  5  6  2  0
  6  7  1  0
  7  8  2  0
  8  9  1  0
  8 10  1  0
  2 11  1  0
 11 12  1  0
 12 13  1  0
 13 14  1  0
 13 15  1  0
 15 16  1  0
 16 17  1  0
 17 18  2  0
 18 19  1  0
 19 20  2  0
 10  5  1  0
 20 16  1  0
  3 21  1  0
  4 22  1  0
  4 23  1  0
  6 24  1  0
  7 25  1  0
 11 26  1  0
 12 27  1  0
 12 28  1  0
 13 29  1  0
 14 30  1  0
 15 31  1  0
 15 32  1  0
 17 33  1  0
 18 34  1  0
 19 35  1  0
M  END
>  <Energy>  (1276) 
508.2208786080418

>  <compound_id>  (1276) 
21585

>  <target_id>  (1276) 
1

>  <reference_id>  (1276) 
20

>  <inspiration_ids>  (1276) 
[20, 56]

>  <energy_score>  (1276) 
537.5324644933044

>  <distance_score>  (1276) 
8.789708591248672

>  <path>  (1276) 
/opt/xchem-fragalysis-2/maxwin/BulkDock/SCRATCH/511021/C21585-P20/C21585-P20.minimised.mol

>  <scratch_subdir>  (1276) 
/opt/xchem-fragalysis-2/maxwin/BulkDock/SCRATCH/511021/C21585-P20

>  <fragmenstein_runtime>  (1276) 
12.990299940109253

>  <fragmenstein_outcome>  (1276) 
too moved

>  <fragmenstein_mode>  (1276) 
expansion

>  <fragmenstein_error>  (1276) 


$$$$
C21585-P56
     RDKit          3D

 35 36  0  0  0  0  0  0  0  0999 V2000
    9.4680   -6.8494   28.9586 O   0  0  0  0  0  0  0  0  0  0  0  0
    9.3654   -5.7739   28.5080 C   0  0  0  0  0  0  0  0  0  0  0  0
   10.0682   -5.1533   27.3260 N   0  0  0  0  0  0  0  0  0  0  0  0
   11.1305   -5.6703   26.4767 C   0  0  0  0  0  0  0  0  0  0  0  0
   11.8327   -4.7418   25.5177 C   0  0  0  0  0  0  0  0  0  0  0  0
   11.9480   -3.3623   25.4569 C   0  0  0  0  0  0  0  0  0  0  0  0
   12.7085   -2.9109   24.3262 C   0  0  0  0  0  0  0  0  0  0  0  0
   13.1656   -3.9610   23.5776 C   0  0  0  0  0  0  0  0  0  0  0  0
   14.1042   -3.8885   22.1430 Cl  0  0  0  0  0  0  0  0  0  0  0  0
   12.7608   -5.4628   24.2349 S   0  0  0  0  0  0  0  0  0  0  0  0
    8.5808   -4.5983   28.9956 N   0  0  0  0  0  0  0  0  0  0  0  0
    7.7959   -4.4150   30.2197 C   0  0  0  0  0  0  0  0  0  0  0  0
    6.2424   -4.5227   30.1884 C   0  0  0  0  0  0  0  0  0  0  0  0
    5.8306   -5.7607   29.5956 O   0  0  0  0  0  0  0  0  0  0  0  0
    5.6949   -4.4497   31.6469 C   0  0  0  0  0  0  0  0  0  0  0  0
    4.2507   -4.4812   31.8102 N   0  0  0  0  0  0  0  0  0  0  0  0
    3.5634   -4.1727   32.9515 C   0  0  0  0  0  0  0  0  0  0  0  0
    2.2486   -4.4873   32.7049 C   0  0  0  0  0  0  0  0  0  0  0  0
    2.2447   -4.9781   31.3867 C   0  0  0  0  0  0  0  0  0  0  0  0
    3.4615   -4.9664   30.8308 N   0  0  0  0  0  0  0  0  0  0  0  0
    9.8117   -4.1872   27.2581 H   0  0  0  0  0  0  0  0  0  0  0  0
   11.8735   -6.1111   27.1524 H   0  0  0  0  0  0  0  0  0  0  0  0
   10.6795   -6.5053   25.9269 H   0  0  0  0  0  0  0  0  0  0  0  0
   11.4792   -2.6933   26.1673 H   0  0  0  0  0  0  0  0  0  0  0  0
   12.8877   -1.8717   24.0808 H   0  0  0  0  0  0  0  0  0  0  0  0
    8.6480   -3.8536   28.3260 H   0  0  0  0  0  0  0  0  0  0  0  0
    8.1735   -5.1786   30.9106 H   0  0  0  0  0  0  0  0  0  0  0  0
    8.0815   -3.4360   30.6202 H   0  0  0  0  0  0  0  0  0  0  0  0
    5.8337   -3.7110   29.5758 H   0  0  0  0  0  0  0  0  0  0  0  0
    4.8486   -5.7103   29.7002 H   0  0  0  0  0  0  0  0  0  0  0  0
    6.0657   -5.3078   32.2212 H   0  0  0  0  0  0  0  0  0  0  0  0
    6.0440   -3.5281   32.1267 H   0  0  0  0  0  0  0  0  0  0  0  0
    4.0585   -3.7965   33.8361 H   0  0  0  0  0  0  0  0  0  0  0  0
    1.4157   -4.4022   33.3879 H   0  0  0  0  0  0  0  0  0  0  0  0
    1.4067   -5.3555   30.8147 H   0  0  0  0  0  0  0  0  0  0  0  0
  1  2  2  0
  2  3  1  0
  3  4  1  0
  4  5  1  0
  5  6  2  0
  6  7  1  0
  7  8  2  0
  8  9  1  0
  8 10  1  0
  2 11  1  0
 11 12  1  0
 12 13  1  0
 13 14  1  0
 13 15  1  0
 15 16  1  0
 16 17  1  0
 17 18  2  0
 18 19  1  0
 19 20  2  0
 10  5  1  0
 20 16  1  0
  3 21  1  0
  4 22  1  0
  4 23  1  0
  6 24  1  0
  7 25  1  0
 11 26  1  0
 12 27  1  0
 12 28  1  0
 13 29  1  0
 14 30  1  0
 15 31  1  0
 15 32  1  0
 17 33  1  0
 18 34  1  0
 19 35  1  0
M  END
>  <Energy>  (1277) 
-32.914264036104584

>  <compound_id>  (1277) 
21585

>  <target_id>  (1277) 
1

>  <reference_id>  (1277) 
56

>  <inspiration_ids>  (1277) 
[20, 56]

>  <energy_score>  (1277) 
-3.6026781508429053

>  <distance_score>  (1277) 
8.51946483682981

>  <path>  (1277) 
/opt/xchem-fragalysis-2/maxwin/BulkDock/SCRATCH/511021/C21585-P56/C21585-P56.minimised.mol

>  <scratch_subdir>  (1277) 
/opt/xchem-fragalysis-2/maxwin/BulkDock/SCRATCH/511021/C21585-P56

>  <fragmenstein_runtime>  (1277) 
14.864631652832031

>  <fragmenstein_outcome>  (1277) 
too moved

>  <fragmenstein_mode>  (1277) 
expansion

>  <fragmenstein_error>  (1277) 


$$$$
C52082-P20
     RDKit          3D

 42 43  0  0  0  0  0  0  0  0999 V2000
    6.2133   -5.1515   29.6740 C   0  0  0  0  0  0  0  0  0  0  0  0
    7.4477   -5.5266   30.4734 C   0  0  0  0  0  0  0  0  0  0  0  0
    8.7216   -4.6304   30.1127 C   0  0  0  0  0  0  0  0  0  0  0  0
    9.5103   -4.9000   28.7926 N   0  0  0  0  0  0  0  0  0  0  0  0
    8.7572   -3.6761   28.3492 C   0  0  0  0  0  0  0  0  0  0  0  0
    9.3782   -5.9363   27.8233 C   0  0  0  0  0  0  0  0  0  0  0  0
    8.5612   -6.8225   27.7277 O   0  0  0  0  0  0  0  0  0  0  0  0
   10.5442   -5.9571   26.7809 C   0  0  0  0  0  0  0  0  0  0  0  0
   11.4785   -4.7578   26.5611 C   0  0  0  0  0  0  0  0  0  0  0  0
   12.2367   -4.7752   25.2241 C   0  0  0  0  0  0  0  0  0  0  0  0
   12.6868   -5.8295   24.4461 C   0  0  0  0  0  0  0  0  0  0  0  0
   13.3112   -5.4050   23.2285 C   0  0  0  0  0  0  0  0  0  0  0  0
   13.3392   -4.0359   23.1154 C   0  0  0  0  0  0  0  0  0  0  0  0
   12.6809   -3.2742   24.4966 S   0  0  0  0  0  0  0  0  0  0  0  0
    7.0980   -5.3609   31.9062 N   0  0  0  0  0  0  0  0  0  0  0  0
    6.4198   -6.5235   32.4973 C   0  0  0  0  0  0  0  0  0  0  0  0
    5.2640   -6.0462   33.3230 C   0  0  0  0  0  0  0  0  0  0  0  0
    4.9397   -6.4446   34.6069 C   0  0  0  0  0  0  0  0  0  0  0  0
    3.5139   -5.6493   35.1311 S   0  0  0  0  0  0  0  0  0  0  0  0
    3.4257   -4.8525   33.6159 C   0  0  0  0  0  0  0  0  0  0  0  0
    4.3952   -5.1107   32.7657 N   0  0  0  0  0  0  0  0  0  0  0  0
    6.3709   -5.3903   28.6262 H   0  0  0  0  0  0  0  0  0  0  0  0
    5.3338   -5.7048   30.0095 H   0  0  0  0  0  0  0  0  0  0  0  0
    5.9740   -4.0858   29.7625 H   0  0  0  0  0  0  0  0  0  0  0  0
    7.7207   -6.5710   30.2803 H   0  0  0  0  0  0  0  0  0  0  0  0
    9.4779   -4.9979   30.8276 H   0  0  0  0  0  0  0  0  0  0  0  0
    8.6118   -3.5875   30.4623 H   0  0  0  0  0  0  0  0  0  0  0  0
    7.6675   -3.7155   28.3710 H   0  0  0  0  0  0  0  0  0  0  0  0
    9.1776   -2.7576   28.7847 H   0  0  0  0  0  0  0  0  0  0  0  0
    8.9497   -3.5606   27.2745 H   0  0  0  0  0  0  0  0  0  0  0  0
   11.1588   -6.8307   27.0366 H   0  0  0  0  0  0  0  0  0  0  0  0
   10.0595   -6.1922   25.8250 H   0  0  0  0  0  0  0  0  0  0  0  0
   10.9150   -3.8232   26.6161 H   0  0  0  0  0  0  0  0  0  0  0  0
   12.2157   -4.7236   27.3732 H   0  0  0  0  0  0  0  0  0  0  0  0
   12.5584   -6.8675   24.7260 H   0  0  0  0  0  0  0  0  0  0  0  0
   13.7097   -6.0714   22.4744 H   0  0  0  0  0  0  0  0  0  0  0  0
   13.7312   -3.4370   22.3048 H   0  0  0  0  0  0  0  0  0  0  0  0
    6.4647   -4.5588   32.0045 H   0  0  0  0  0  0  0  0  0  0  0  0
    6.0657   -7.2257   31.7401 H   0  0  0  0  0  0  0  0  0  0  0  0
    7.1384   -7.0615   33.1253 H   0  0  0  0  0  0  0  0  0  0  0  0
    5.4548   -7.1490   35.2439 H   0  0  0  0  0  0  0  0  0  0  0  0
    2.6177   -4.1719   33.3818 H   0  0  0  0  0  0  0  0  0  0  0  0
  1  2  1  0
  2  3  1  0
  3  4  1  0
  4  5  1  0
  4  6  1  0
  6  7  2  0
  6  8  1  0
  8  9  1  0
  9 10  1  0
 10 11  2  0
 11 12  1  0
 12 13  2  0
 13 14  1  0
  2 15  1  0
 15 16  1  0
 16 17  1  0
 17 18  2  0
 18 19  1  0
 19 20  1  0
 20 21  2  0
 14 10  1  0
 21 17  1  0
  1 22  1  0
  1 23  1  0
  1 24  1  0
  2 25  1  0
  3 26  1  0
  3 27  1  0
  5 28  1  0
  5 29  1  0
  5 30  1  0
  8 31  1  0
  8 32  1  0
  9 33  1  0
  9 34  1  0
 11 35  1  0
 12 36  1  0
 13 37  1  0
 15 38  1  0
 16 39  1  0
 16 40  1  0
 18 41  1  0
 20 42  1  0
M  END
>  <Energy>  (1278) 
109.95267927022202

>  <compound_id>  (1278) 
52082

>  <target_id>  (1278) 
1

>  <reference_id>  (1278) 
20

>  <inspiration_ids>  (1278) 
[20, 56]

>  <energy_score>  (1278) 
7.699060275621548

>  <distance_score>  (1278) 
10.019362972547508

>  <path>  (1278) 
/opt/xchem-fragalysis-2/maxwin/BulkDock/SCRATCH/511021/C52082-P20/C52082-P20.minimised.mol

>  <scratch_subdir>  (1278) 
/opt/xchem-fragalysis-2/maxwin/BulkDock/SCRATCH/511021/C52082-P20

>  <fragmenstein_runtime>  (1278) 
20.160329580307007

>  <fragmenstein_outcome>  (1278) 
too moved

>  <fragmenstein_mode>  (1278) 
expansion

>  <fragmenstein_error>  (1278) 


$$$$
C52082-P56
     RDKit          3D

 42 43  0  0  0  0  0  0  0  0999 V2000
   -1.3998   -7.6717   31.6271 C   0  0  0  0  0  0  0  0  0  0  0  0
   -0.6657   -6.5868   30.8397 C   0  0  0  0  0  0  0  0  0  0  0  0
   -0.7330   -6.7169   29.2505 C   0  0  0  0  0  0  0  0  0  0  0  0
    0.2063   -7.7746   28.7176 N   0  0  0  0  0  0  0  0  0  0  0  0
   -0.3683   -7.2962   27.3913 C   0  0  0  0  0  0  0  0  0  0  0  0
    0.1488   -9.2099   28.8016 C   0  0  0  0  0  0  0  0  0  0  0  0
   -0.7076   -9.9240   29.2380 O   0  0  0  0  0  0  0  0  0  0  0  0
    1.6412  -10.1324   28.2957 C   0  0  0  0  0  0  0  0  0  0  0  0
    3.2568  -10.7342   28.7339 C   0  0  0  0  0  0  0  0  0  0  0  0
    4.7748  -10.6244   28.1100 C   0  0  0  0  0  0  0  0  0  0  0  0
    5.6182  -11.7220   27.8675 C   0  0  0  0  0  0  0  0  0  0  0  0
    6.8477  -11.4149   27.1820 C   0  0  0  0  0  0  0  0  0  0  0  0
    6.9943  -10.0695   26.9747 C   0  0  0  0  0  0  0  0  0  0  0  0
    5.7071   -9.2243   27.6794 S   0  0  0  0  0  0  0  0  0  0  0  0
    0.6812   -6.5939   31.3772 N   0  0  0  0  0  0  0  0  0  0  0  0
    1.3280   -5.2942   31.3617 C   0  0  0  0  0  0  0  0  0  0  0  0
    0.8224   -4.4727   32.5093 C   0  0  0  0  0  0  0  0  0  0  0  0
    1.2218   -4.6008   33.8293 C   0  0  0  0  0  0  0  0  0  0  0  0
    0.3604   -3.5031   34.8192 S   0  0  0  0  0  0  0  0  0  0  0  0
   -0.4800   -2.9486   33.4321 C   0  0  0  0  0  0  0  0  0  0  0  0
   -0.1561   -3.5054   32.2852 N   0  0  0  0  0  0  0  0  0  0  0  0
   -1.2806   -7.5192   32.7077 H   0  0  0  0  0  0  0  0  0  0  0  0
   -2.4717   -7.6370   31.4400 H   0  0  0  0  0  0  0  0  0  0  0  0
   -1.0407   -8.6749   31.4008 H   0  0  0  0  0  0  0  0  0  0  0  0
   -1.1715   -5.6542   31.1093 H   0  0  0  0  0  0  0  0  0  0  0  0
   -1.7756   -7.0045   29.0870 H   0  0  0  0  0  0  0  0  0  0  0  0
   -0.4786   -5.7078   28.8879 H   0  0  0  0  0  0  0  0  0  0  0  0
    0.1151   -6.3637   27.0746 H   0  0  0  0  0  0  0  0  0  0  0  0
   -0.1320   -8.0476   26.6464 H   0  0  0  0  0  0  0  0  0  0  0  0
   -1.4460   -7.1379   27.2649 H   0  0  0  0  0  0  0  0  0  0  0  0
    1.4450  -10.5410   29.2986 H   0  0  0  0  0  0  0  0  0  0  0  0
    2.0113   -9.1974   27.9864 H   0  0  0  0  0  0  0  0  0  0  0  0
    3.1721  -11.7997   28.5336 H   0  0  0  0  0  0  0  0  0  0  0  0
    3.3527  -10.7036   29.8078 H   0  0  0  0  0  0  0  0  0  0  0  0
    5.3225  -12.7386   28.1043 H   0  0  0  0  0  0  0  0  0  0  0  0
    7.5710  -12.1568   26.8657 H   0  0  0  0  0  0  0  0  0  0  0  0
    7.8111   -9.5540   26.4891 H   0  0  0  0  0  0  0  0  0  0  0  0
    1.2243   -7.2634   30.8196 H   0  0  0  0  0  0  0  0  0  0  0  0
    1.1875   -4.7719   30.4087 H   0  0  0  0  0  0  0  0  0  0  0  0
    2.4089   -5.4327   31.4842 H   0  0  0  0  0  0  0  0  0  0  0  0
    1.9493   -5.2898   34.2366 H   0  0  0  0  0  0  0  0  0  0  0  0
   -1.2376   -2.1811   33.5088 H   0  0  0  0  0  0  0  0  0  0  0  0
  1  2  1  0
  2  3  1  0
  3  4  1  0
  4  5  1  0
  4  6  1  0
  6  7  2  0
  6  8  1  0
  8  9  1  0
  9 10  1  0
 10 11  2  0
 11 12  1  0
 12 13  2  0
 13 14  1  0
  2 15  1  0
 15 16  1  0
 16 17  1  0
 17 18  2  0
 18 19  1  0
 19 20  1  0
 20 21  2  0
 14 10  1  0
 21 17  1  0
  1 22  1  0
  1 23  1  0
  1 24  1  0
  2 25  1  0
  3 26  1  0
  3 27  1  0
  5 28  1  0
  5 29  1  0
  5 30  1  0
  8 31  1  0
  8 32  1  0
  9 33  1  0
  9 34  1  0
 11 35  1  0
 12 36  1  0
 13 37  1  0
 15 38  1  0
 16 39  1  0
 16 40  1  0
 18 41  1  0
 20 42  1  0
M  END
>  <Energy>  (1279) 
235.97240670272146

>  <compound_id>  (1279) 
52082

>  <target_id>  (1279) 
1

>  <reference_id>  (1279) 
56

>  <inspiration_ids>  (1279) 
[20, 56]

>  <energy_score>  (1279) 
133.71878770812418

>  <distance_score>  (1279) 
11.08780517349274

>  <path>  (1279) 
/opt/xchem-fragalysis-2/maxwin/BulkDock/SCRATCH/511021/C52082-P56/C52082-P56.minimised.mol

>  <scratch_subdir>  (1279) 
/opt/xchem-fragalysis-2/maxwin/BulkDock/SCRATCH/511021/C52082-P56

>  <fragmenstein_runtime>  (1279) 
21.66941523551941

>  <fragmenstein_outcome>  (1279) 
too moved

>  <fragmenstein_mode>  (1279) 
expansion

>  <fragmenstein_error>  (1279) 


$$$$
C39816-P20
     RDKit          3D

 42 43  0  0  0  0  0  0  0  0999 V2000
    7.5931   -4.1538   30.8131 C   0  0  0  0  0  0  0  0  0  0  0  0
    7.0105   -5.0319   29.6965 C   0  0  0  0  0  0  0  0  0  0  0  0
    8.1044   -6.0507   29.1251 C   0  0  0  0  0  0  0  0  0  0  0  0
    9.2881   -5.4942   28.2686 N   0  0  0  0  0  0  0  0  0  0  0  0
   10.0658   -5.8684   29.4909 C   0  0  0  0  0  0  0  0  0  0  0  0
    9.6072   -4.1559   27.8722 C   0  0  0  0  0  0  0  0  0  0  0  0
    9.0943   -3.1068   28.1736 O   0  0  0  0  0  0  0  0  0  0  0  0
   10.8880   -4.0704   26.9924 C   0  0  0  0  0  0  0  0  0  0  0  0
   11.2934   -5.2574   26.1097 C   0  0  0  0  0  0  0  0  0  0  0  0
   12.2288   -4.9713   24.9166 C   0  0  0  0  0  0  0  0  0  0  0  0
   12.7831   -5.9049   24.0496 C   0  0  0  0  0  0  0  0  0  0  0  0
   13.4905   -5.3174   22.9536 C   0  0  0  0  0  0  0  0  0  0  0  0
   13.4975   -3.9467   23.0321 C   0  0  0  0  0  0  0  0  0  0  0  0
   12.7120   -3.3902   24.4438 S   0  0  0  0  0  0  0  0  0  0  0  0
    5.8036   -5.7978   30.1694 N   0  0  0  0  0  0  0  0  0  0  0  0
    4.7178   -4.9125   30.6857 C   0  0  0  0  0  0  0  0  0  0  0  0
    4.7550   -4.7971   32.1834 C   0  0  0  0  0  0  0  0  0  0  0  0
    4.1196   -3.8237   32.9890 C   0  0  0  0  0  0  0  0  0  0  0  0
    4.4572   -4.1734   34.2692 C   0  0  0  0  0  0  0  0  0  0  0  0
    5.2415   -5.2779   34.2472 O   0  0  0  0  0  0  0  0  0  0  0  0
    5.4334   -5.6799   32.9367 N   0  0  0  0  0  0  0  0  0  0  0  0
    8.4831   -3.6120   30.4879 H   0  0  0  0  0  0  0  0  0  0  0  0
    6.8871   -3.3827   31.1352 H   0  0  0  0  0  0  0  0  0  0  0  0
    7.8723   -4.7528   31.6864 H   0  0  0  0  0  0  0  0  0  0  0  0
    6.6987   -4.3885   28.8653 H   0  0  0  0  0  0  0  0  0  0  0  0
    7.5599   -6.5835   28.3297 H   0  0  0  0  0  0  0  0  0  0  0  0
    8.2739   -6.8827   29.8339 H   0  0  0  0  0  0  0  0  0  0  0  0
   10.1839   -6.9577   29.5963 H   0  0  0  0  0  0  0  0  0  0  0  0
   11.0973   -5.5325   29.3081 H   0  0  0  0  0  0  0  0  0  0  0  0
    9.8037   -5.3506   30.4197 H   0  0  0  0  0  0  0  0  0  0  0  0
   10.7131   -3.1905   26.3620 H   0  0  0  0  0  0  0  0  0  0  0  0
   11.7208   -3.8132   27.6591 H   0  0  0  0  0  0  0  0  0  0  0  0
   10.3967   -5.7511   25.7183 H   0  0  0  0  0  0  0  0  0  0  0  0
   11.7906   -6.0051   26.7418 H   0  0  0  0  0  0  0  0  0  0  0  0
   12.6434   -6.9714   24.1730 H   0  0  0  0  0  0  0  0  0  0  0  0
   13.9582   -5.8706   22.1496 H   0  0  0  0  0  0  0  0  0  0  0  0
   13.9376   -3.2368   22.3453 H   0  0  0  0  0  0  0  0  0  0  0  0
    6.1002   -6.3511   30.9843 H   0  0  0  0  0  0  0  0  0  0  0  0
    4.7540   -3.9232   30.2149 H   0  0  0  0  0  0  0  0  0  0  0  0
    3.7492   -5.3411   30.4173 H   0  0  0  0  0  0  0  0  0  0  0  0
    3.5036   -2.9935   32.6778 H   0  0  0  0  0  0  0  0  0  0  0  0
    4.2386   -3.7732   35.2478 H   0  0  0  0  0  0  0  0  0  0  0  0
  1  2  1  0
  2  3  1  0
  3  4  1  0
  4  5  1  0
  4  6  1  0
  6  7  2  0
  6  8  1  0
  8  9  1  0
  9 10  1  0
 10 11  2  0
 11 12  1  0
 12 13  2  0
 13 14  1  0
  2 15  1  0
 15 16  1  0
 16 17  1  0
 17 18  1  0
 18 19  2  0
 19 20  1  0
 20 21  1  0
 14 10  1  0
 21 17  2  0
  1 22  1  0
  1 23  1  0
  1 24  1  0
  2 25  1  0
  3 26  1  0
  3 27  1  0
  5 28  1  0
  5 29  1  0
  5 30  1  0
  8 31  1  0
  8 32  1  0
  9 33  1  0
  9 34  1  0
 11 35  1  0
 12 36  1  0
 13 37  1  0
 15 38  1  0
 16 39  1  0
 16 40  1  0
 18 41  1  0
 19 42  1  0
M  END
>  <Energy>  (1280) 
108.57764831444302

>  <compound_id>  (1280) 
39816

>  <target_id>  (1280) 
1

>  <reference_id>  (1280) 
20

>  <inspiration_ids>  (1280) 
[20, 56]

>  <energy_score>  (1280) 
31.585795835685246

>  <distance_score>  (1280) 
9.86250377549615

>  <path>  (1280) 
/opt/xchem-fragalysis-2/maxwin/BulkDock/SCRATCH/511021/C39816-P20/C39816-P20.minimised.mol

>  <scratch_subdir>  (1280) 
/opt/xchem-fragalysis-2/maxwin/BulkDock/SCRATCH/511021/C39816-P20

>  <fragmenstein_runtime>  (1280) 
21.977983474731445

>  <fragmenstein_outcome>  (1280) 
too moved

>  <fragmenstein_mode>  (1280) 
expansion

>  <fragmenstein_error>  (1280) 


$$$$
C39816-P56
     RDKit          3D

 42 43  0  0  0  0  0  0  0  0999 V2000
    2.6787   -3.1621   30.6551 C   0  0  0  0  0  0  0  0  0  0  0  0
    3.3661   -4.5142   30.9657 C   0  0  0  0  0  0  0  0  0  0  0  0
    4.8831   -4.3060   31.5098 C   0  0  0  0  0  0  0  0  0  0  0  0
    6.2369   -4.3155   30.6751 N   0  0  0  0  0  0  0  0  0  0  0  0
    5.5958   -3.1524   30.0243 C   0  0  0  0  0  0  0  0  0  0  0  0
    6.7227   -5.2405   29.6753 C   0  0  0  0  0  0  0  0  0  0  0  0
    6.1848   -6.1870   29.1580 O   0  0  0  0  0  0  0  0  0  0  0  0
    8.1415   -4.7832   29.1941 C   0  0  0  0  0  0  0  0  0  0  0  0
    8.9461   -5.8430   28.4084 C   0  0  0  0  0  0  0  0  0  0  0  0
   10.0036   -5.3197   27.4198 C   0  0  0  0  0  0  0  0  0  0  0  0
   10.5461   -4.0566   27.2438 C   0  0  0  0  0  0  0  0  0  0  0  0
   11.5355   -3.9999   26.2084 C   0  0  0  0  0  0  0  0  0  0  0  0
   11.7207   -5.2221   25.6059 C   0  0  0  0  0  0  0  0  0  0  0  0
   10.7112   -6.4251   26.2895 S   0  0  0  0  0  0  0  0  0  0  0  0
    2.5041   -5.2090   31.9697 N   0  0  0  0  0  0  0  0  0  0  0  0
    1.1147   -5.4545   31.5359 C   0  0  0  0  0  0  0  0  0  0  0  0
    0.3100   -6.2404   32.5287 C   0  0  0  0  0  0  0  0  0  0  0  0
   -0.4528   -7.4066   32.2691 C   0  0  0  0  0  0  0  0  0  0  0  0
   -1.0396   -7.7074   33.4682 C   0  0  0  0  0  0  0  0  0  0  0  0
   -0.6811   -6.7811   34.3892 O   0  0  0  0  0  0  0  0  0  0  0  0
    0.1514   -5.8446   33.8010 N   0  0  0  0  0  0  0  0  0  0  0  0
    2.5104   -2.5892   31.5745 H   0  0  0  0  0  0  0  0  0  0  0  0
    3.2302   -2.5163   29.9729 H   0  0  0  0  0  0  0  0  0  0  0  0
    1.7144   -3.3067   30.1574 H   0  0  0  0  0  0  0  0  0  0  0  0
    3.4147   -5.1234   30.0649 H   0  0  0  0  0  0  0  0  0  0  0  0
    4.9269   -3.5080   32.2701 H   0  0  0  0  0  0  0  0  0  0  0  0
    5.0604   -5.2168   32.1027 H   0  0  0  0  0  0  0  0  0  0  0  0
    4.8866   -3.4388   29.2459 H   0  0  0  0  0  0  0  0  0  0  0  0
    6.3956   -2.6814   29.4336 H   0  0  0  0  0  0  0  0  0  0  0  0
    5.3055   -2.3201   30.6817 H   0  0  0  0  0  0  0  0  0  0  0  0
    7.9788   -3.9124   28.5492 H   0  0  0  0  0  0  0  0  0  0  0  0
    8.7238   -4.4506   30.0613 H   0  0  0  0  0  0  0  0  0  0  0  0
    8.2620   -6.4982   27.8573 H   0  0  0  0  0  0  0  0  0  0  0  0
    9.4570   -6.4890   29.1347 H   0  0  0  0  0  0  0  0  0  0  0  0
   10.2513   -3.1953   27.8307 H   0  0  0  0  0  0  0  0  0  0  0  0
   12.0627   -3.1015   25.9126 H   0  0  0  0  0  0  0  0  0  0  0  0
   12.3905   -5.4616   24.7925 H   0  0  0  0  0  0  0  0  0  0  0  0
    2.9004   -6.1049   32.2786 H   0  0  0  0  0  0  0  0  0  0  0  0
    0.5788   -4.5084   31.4057 H   0  0  0  0  0  0  0  0  0  0  0  0
    1.1122   -5.9729   30.5716 H   0  0  0  0  0  0  0  0  0  0  0  0
   -0.5305   -7.9453   31.3378 H   0  0  0  0  0  0  0  0  0  0  0  0
   -1.6924   -8.4916   33.8221 H   0  0  0  0  0  0  0  0  0  0  0  0
  1  2  1  0
  2  3  1  0
  3  4  1  0
  4  5  1  0
  4  6  1  0
  6  7  2  0
  6  8  1  0
  8  9  1  0
  9 10  1  0
 10 11  2  0
 11 12  1  0
 12 13  2  0
 13 14  1  0
  2 15  1  0
 15 16  1  0
 16 17  1  0
 17 18  1  0
 18 19  2  0
 19 20  1  0
 20 21  1  0
 14 10  1  0
 21 17  2  0
  1 22  1  0
  1 23  1  0
  1 24  1  0
  2 25  1  0
  3 26  1  0
  3 27  1  0
  5 28  1  0
  5 29  1  0
  5 30  1  0
  8 31  1  0
  8 32  1  0
  9 33  1  0
  9 34  1  0
 11 35  1  0
 12 36  1  0
 13 37  1  0
 15 38  1  0
 16 39  1  0
 16 40  1  0
 18 41  1  0
 19 42  1  0
M  END
>  <Energy>  (1281) 
113.3896227683209

>  <compound_id>  (1281) 
39816

>  <target_id>  (1281) 
1

>  <reference_id>  (1281) 
56

>  <inspiration_ids>  (1281) 
[20, 56]

>  <energy_score>  (1281) 
36.39777028955717

>  <distance_score>  (1281) 
9.268301601840085

>  <path>  (1281) 
/opt/xchem-fragalysis-2/maxwin/BulkDock/SCRATCH/511021/C39816-P56/C39816-P56.minimised.mol

>  <scratch_subdir>  (1281) 
/opt/xchem-fragalysis-2/maxwin/BulkDock/SCRATCH/511021/C39816-P56

>  <fragmenstein_runtime>  (1281) 
17.429970026016235

>  <fragmenstein_outcome>  (1281) 
too moved

>  <fragmenstein_mode>  (1281) 
expansion

>  <fragmenstein_error>  (1281) 


$$$$
C39817-P20
     RDKit          3D

 42 43  0  0  0  0  0  0  0  0999 V2000
    1.2374   -1.1553   27.6878 C   0  0  0  0  0  0  0  0  0  0  0  0
    2.1202   -2.3657   27.3289 C   0  0  0  0  0  0  0  0  0  0  0  0
    3.4526   -1.9005   26.6018 C   0  0  0  0  0  0  0  0  0  0  0  0
    3.9888   -2.0867   25.1017 N   0  0  0  0  0  0  0  0  0  0  0  0
    3.3661   -0.7534   24.9430 C   0  0  0  0  0  0  0  0  0  0  0  0
    5.3244   -2.0759   24.5773 C   0  0  0  0  0  0  0  0  0  0  0  0
    6.3620   -1.8307   25.1412 O   0  0  0  0  0  0  0  0  0  0  0  0
    5.6459   -2.3626   22.7192 C   0  0  0  0  0  0  0  0  0  0  0  0
    7.1984   -3.6869   22.5092 C   0  0  0  0  0  0  0  0  0  0  0  0
    8.6910   -3.4088   21.1898 C   0  0  0  0  0  0  0  0  0  0  0  0
   10.7462   -3.3218   21.3975 C   0  0  0  0  0  0  0  0  0  0  0  0
   11.7597   -4.4392   21.1995 C   0  0  0  0  0  0  0  0  0  0  0  0
   11.1463   -5.3333   20.3296 C   0  0  0  0  0  0  0  0  0  0  0  0
   12.6766   -4.8892   18.9220 Cl  0  0  0  0  0  0  0  0  0  0  0  0
    8.9439   -4.6703   20.0639 S   0  0  0  0  0  0  0  0  0  0  0  0
    2.1708   -3.2442   28.5494 N   0  0  0  0  0  0  0  0  0  0  0  0
    3.0551   -2.7771   29.6176 C   0  0  0  0  0  0  0  0  0  0  0  0
    2.6966   -3.3985   30.9321 C   0  0  0  0  0  0  0  0  0  0  0  0
    2.0837   -4.6445   31.2069 C   0  0  0  0  0  0  0  0  0  0  0  0
    2.0004   -4.6873   32.5726 C   0  0  0  0  0  0  0  0  0  0  0  0
    2.5230   -3.5538   33.0952 O   0  0  0  0  0  0  0  0  0  0  0  0
    2.9622   -2.7368   32.0696 N   0  0  0  0  0  0  0  0  0  0  0  0
    0.2648   -1.4787   28.0769 H   0  0  0  0  0  0  0  0  0  0  0  0
    1.0355   -0.5065   26.8361 H   0  0  0  0  0  0  0  0  0  0  0  0
    1.7058   -0.5219   28.4480 H   0  0  0  0  0  0  0  0  0  0  0  0
    1.6081   -3.0194   26.6643 H   0  0  0  0  0  0  0  0  0  0  0  0
    4.1670   -2.5988   27.0581 H   0  0  0  0  0  0  0  0  0  0  0  0
    3.8457   -0.9783   27.0718 H   0  0  0  0  0  0  0  0  0  0  0  0
    2.3305   -0.6365   25.2444 H   0  0  0  0  0  0  0  0  0  0  0  0
    3.3381   -0.5736   23.8586 H   0  0  0  0  0  0  0  0  0  0  0  0
    3.9968    0.0576   25.3372 H   0  0  0  0  0  0  0  0  0  0  0  0
    5.7072   -1.4688   22.0606 H   0  0  0  0  0  0  0  0  0  0  0  0
    4.6866   -2.5768   22.1900 H   0  0  0  0  0  0  0  0  0  0  0  0
    7.1892   -4.7894   22.6922 H   0  0  0  0  0  0  0  0  0  0  0  0
    7.4570   -3.7107   23.5702 H   0  0  0  0  0  0  0  0  0  0  0  0
   11.1580   -3.0263   22.4233 H   0  0  0  0  0  0  0  0  0  0  0  0
   12.7947   -4.3734   21.5129 H   0  0  0  0  0  0  0  0  0  0  0  0
    1.2190   -3.3087   28.9121 H   0  0  0  0  0  0  0  0  0  0  0  0
    4.0925   -3.0360   29.3796 H   0  0  0  0  0  0  0  0  0  0  0  0
    3.0061   -1.6887   29.7282 H   0  0  0  0  0  0  0  0  0  0  0  0
    1.7466   -5.3978   30.5116 H   0  0  0  0  0  0  0  0  0  0  0  0
    1.6247   -5.4058   33.2852 H   0  0  0  0  0  0  0  0  0  0  0  0
  1  2  1  0
  2  3  1  0
  3  4  1  0
  4  5  1  0
  4  6  1  0
  6  7  2  0
  6  8  1  0
  8  9  1  0
  9 10  1  0
 10 11  2  0
 11 12  1  0
 12 13  2  0
 13 14  1  0
 13 15  1  0
  2 16  1  0
 16 17  1  0
 17 18  1  0
 18 19  1  0
 19 20  2  0
 20 21  1  0
 21 22  1  0
 15 10  1  0
 22 18  2  0
  1 23  1  0
  1 24  1  0
  1 25  1  0
  2 26  1  0
  3 27  1  0
  3 28  1  0
  5 29  1  0
  5 30  1  0
  5 31  1  0
  8 32  1  0
  8 33  1  0
  9 34  1  0
  9 35  1  0
 11 36  1  0
 12 37  1  0
 16 38  1  0
 17 39  1  0
 17 40  1  0
 19 41  1  0
 20 42  1  0
M  END
>  <Energy>  (1282) 
692.30364924820856

>  <compound_id>  (1282) 
39817

>  <target_id>  (1282) 
1

>  <reference_id>  (1282) 
20

>  <inspiration_ids>  (1282) 
[20, 56]

>  <energy_score>  (1282) 
611.7789846270396

>  <distance_score>  (1282) 
8.865375000823676

>  <path>  (1282) 
/opt/xchem-fragalysis-2/maxwin/BulkDock/SCRATCH/511021/C39817-P20/C39817-P20.minimised.mol

>  <scratch_subdir>  (1282) 
/opt/xchem-fragalysis-2/maxwin/BulkDock/SCRATCH/511021/C39817-P20

>  <fragmenstein_runtime>  (1282) 
12.68160080909729

>  <fragmenstein_outcome>  (1282) 
too moved

>  <fragmenstein_mode>  (1282) 
expansion

>  <fragmenstein_error>  (1282) 


$$$$
C39817-P56
     RDKit          3D

 42 43  0  0  0  0  0  0  0  0999 V2000
    1.4011   -3.0943   31.3233 C   0  0  0  0  0  0  0  0  0  0  0  0
    2.1852   -4.3487   30.8728 C   0  0  0  0  0  0  0  0  0  0  0  0
    3.7415   -4.1908   31.2527 C   0  0  0  0  0  0  0  0  0  0  0  0
    4.8663   -3.8582   30.2115 N   0  0  0  0  0  0  0  0  0  0  0  0
    4.2426   -2.5083   30.2866 C   0  0  0  0  0  0  0  0  0  0  0  0
    6.3019   -3.7512   30.3743 C   0  0  0  0  0  0  0  0  0  0  0  0
    6.9819   -3.8023   31.3666 O   0  0  0  0  0  0  0  0  0  0  0  0
    6.9804   -3.5224   28.9956 C   0  0  0  0  0  0  0  0  0  0  0  0
    8.4527   -3.0852   29.0983 C   0  0  0  0  0  0  0  0  0  0  0  0
    9.1438   -2.6128   27.8141 C   0  0  0  0  0  0  0  0  0  0  0  0
   10.1977   -3.1948   27.1193 C   0  0  0  0  0  0  0  0  0  0  0  0
   10.7914   -2.3100   26.1548 C   0  0  0  0  0  0  0  0  0  0  0  0
   10.1383   -1.1073   26.1303 C   0  0  0  0  0  0  0  0  0  0  0  0
   10.5787    0.2994   25.2474 Cl  0  0  0  0  0  0  0  0  0  0  0  0
    8.7878   -1.0634   27.1492 S   0  0  0  0  0  0  0  0  0  0  0  0
    1.5189   -5.4803   31.5760 N   0  0  0  0  0  0  0  0  0  0  0  0
    0.2756   -5.9331   30.9208 C   0  0  0  0  0  0  0  0  0  0  0  0
   -0.4949   -6.8985   31.7718 C   0  0  0  0  0  0  0  0  0  0  0  0
   -0.4477   -7.0985   33.1739 C   0  0  0  0  0  0  0  0  0  0  0  0
   -1.3836   -8.0683   33.4146 C   0  0  0  0  0  0  0  0  0  0  0  0
   -1.9743   -8.4239   32.2482 O   0  0  0  0  0  0  0  0  0  0  0  0
   -1.4344   -7.6819   31.2117 N   0  0  0  0  0  0  0  0  0  0  0  0
    1.7542   -2.1695   30.8654 H   0  0  0  0  0  0  0  0  0  0  0  0
    0.3395   -3.1543   31.0647 H   0  0  0  0  0  0  0  0  0  0  0  0
    1.4698   -2.9625   32.4099 H   0  0  0  0  0  0  0  0  0  0  0  0
    2.1121   -4.4884   29.7888 H   0  0  0  0  0  0  0  0  0  0  0  0
    3.9059   -3.7079   32.2318 H   0  0  0  0  0  0  0  0  0  0  0  0
    4.0554   -5.2185   31.4894 H   0  0  0  0  0  0  0  0  0  0  0  0
    4.1850   -2.0263   31.2738 H   0  0  0  0  0  0  0  0  0  0  0  0
    4.9201   -1.8252   29.7525 H   0  0  0  0  0  0  0  0  0  0  0  0
    3.3446   -2.4586   29.6642 H   0  0  0  0  0  0  0  0  0  0  0  0
    6.4120   -2.7748   28.4381 H   0  0  0  0  0  0  0  0  0  0  0  0
    6.9342   -4.4804   28.4732 H   0  0  0  0  0  0  0  0  0  0  0  0
    9.0365   -3.9185   29.5121 H   0  0  0  0  0  0  0  0  0  0  0  0
    8.5370   -2.2755   29.8362 H   0  0  0  0  0  0  0  0  0  0  0  0
   10.5875   -4.1787   27.3497 H   0  0  0  0  0  0  0  0  0  0  0  0
   11.6586   -2.5449   25.5512 H   0  0  0  0  0  0  0  0  0  0  0  0
    2.1343   -6.2941   31.6742 H   0  0  0  0  0  0  0  0  0  0  0  0
    0.5043   -6.3859   29.9518 H   0  0  0  0  0  0  0  0  0  0  0  0
   -0.3920   -5.0879   30.7265 H   0  0  0  0  0  0  0  0  0  0  0  0
    0.1921   -6.6008   33.8877 H   0  0  0  0  0  0  0  0  0  0  0  0
   -1.7356   -8.5863   34.2954 H   0  0  0  0  0  0  0  0  0  0  0  0
  1  2  1  0
  2  3  1  0
  3  4  1  0
  4  5  1  0
  4  6  1  0
  6  7  2  0
  6  8  1  0
  8  9  1  0
  9 10  1  0
 10 11  2  0
 11 12  1  0
 12 13  2  0
 13 14  1  0
 13 15  1  0
  2 16  1  0
 16 17  1  0
 17 18  1  0
 18 19  1  0
 19 20  2  0
 20 21  1  0
 21 22  1  0
 15 10  1  0
 22 18  2  0
  1 23  1  0
  1 24  1  0
  1 25  1  0
  2 26  1  0
  3 27  1  0
  3 28  1  0
  5 29  1  0
  5 30  1  0
  5 31  1  0
  8 32  1  0
  8 33  1  0
  9 34  1  0
  9 35  1  0
 11 36  1  0
 12 37  1  0
 16 38  1  0
 17 39  1  0
 17 40  1  0
 19 41  1  0
 20 42  1  0
M  END
>  <Energy>  (1283) 
106.0643307266447

>  <compound_id>  (1283) 
39817

>  <target_id>  (1283) 
1

>  <reference_id>  (1283) 
56

>  <inspiration_ids>  (1283) 
[20, 56]

>  <energy_score>  (1283) 
25.539666105464846

>  <distance_score>  (1283) 
8.85725034336882

>  <path>  (1283) 
/opt/xchem-fragalysis-2/maxwin/BulkDock/SCRATCH/511021/C39817-P56/C39817-P56.minimised.mol

>  <scratch_subdir>  (1283) 
/opt/xchem-fragalysis-2/maxwin/BulkDock/SCRATCH/511021/C39817-P56

>  <fragmenstein_runtime>  (1283) 
14.181151866912842

>  <fragmenstein_outcome>  (1283) 
too moved

>  <fragmenstein_mode>  (1283) 
expansion

>  <fragmenstein_error>  (1283) 


$$$$
C19194-P20
     RDKit          3D

 37 38  0  0  0  0  0  0  0  0999 V2000
    7.8534   -2.7958   28.2658 C   0  0  0  0  0  0  0  0  0  0  0  0
    8.1493   -3.2285   27.0339 C   0  0  0  0  0  0  0  0  0  0  0  0
    7.5808   -2.6342   25.7127 C   0  0  0  0  0  0  0  0  0  0  0  0
    6.7298   -3.5851   24.1812 C   0  0  0  0  0  0  0  0  0  0  0  0
    5.5682   -2.2923   24.1468 O   0  0  0  0  0  0  0  0  0  0  0  0
    4.5433   -1.7826   24.9854 C   0  0  0  0  0  0  0  0  0  0  0  0
    4.4491   -0.5688   25.2315 O   0  0  0  0  0  0  0  0  0  0  0  0
    3.3934   -2.5773   25.5734 C   0  0  0  0  0  0  0  0  0  0  0  0
    2.0248   -2.2211   24.9733 C   0  0  0  0  0  0  0  0  0  0  0  0
    3.2050   -2.3986   27.1343 C   0  0  0  0  0  0  0  0  0  0  0  0
    2.1970   -2.9445   27.9391 C   0  0  0  0  0  0  0  0  0  0  0  0
    2.3579   -2.6690   29.3315 C   0  0  0  0  0  0  0  0  0  0  0  0
    3.4571   -1.8811   29.5401 C   0  0  0  0  0  0  0  0  0  0  0  0
    4.0122   -1.2854   31.2689 Br  0  0  0  0  0  0  0  0  0  0  0  0
    4.2803   -1.4847   28.1199 S   0  0  0  0  0  0  0  0  0  0  0  0
    7.4609   -4.1961   22.5593 C   0  0  0  0  0  0  0  0  0  0  0  0
    7.6977   -3.6703   21.3621 C   0  0  0  0  0  0  0  0  0  0  0  0
    8.5542   -4.4256   19.9830 C   0  0  0  0  0  0  0  0  0  0  0  0
    9.6372   -5.5695   19.4015 C   0  0  0  0  0  0  0  0  0  0  0  0
    9.6721   -5.4083   20.5336 C   0  0  0  0  0  0  0  0  0  0  0  0
    8.1131   -5.1000   21.7646 N   0  0  0  0  0  0  0  0  0  0  0  0
    8.3265   -3.2315   29.1391 H   0  0  0  0  0  0  0  0  0  0  0  0
    7.1542   -1.9847   28.4273 H   0  0  0  0  0  0  0  0  0  0  0  0
    8.9108   -3.9971   26.9276 H   0  0  0  0  0  0  0  0  0  0  0  0
    8.4426   -2.0476   25.3479 H   0  0  0  0  0  0  0  0  0  0  0  0
    6.8764   -1.8447   26.0090 H   0  0  0  0  0  0  0  0  0  0  0  0
    7.7453   -3.5159   24.1766 H   0  0  0  0  0  0  0  0  0  0  0  0
    3.5608   -3.5777   25.2197 H   0  0  0  0  0  0  0  0  0  0  0  0
    1.7019   -1.2115   25.2509 H   0  0  0  0  0  0  0  0  0  0  0  0
    1.2466   -2.9211   25.2973 H   0  0  0  0  0  0  0  0  0  0  0  0
    2.0568   -2.2842   23.8810 H   0  0  0  0  0  0  0  0  0  0  0  0
    1.3933   -3.5549   27.5442 H   0  0  0  0  0  0  0  0  0  0  0  0
    1.6980   -3.0231   30.1134 H   0  0  0  0  0  0  0  0  0  0  0  0
    6.7426   -3.0825   21.0710 H   0  0  0  0  0  0  0  0  0  0  0  0
    9.1360   -3.5298   20.0895 H   0  0  0  0  0  0  0  0  0  0  0  0
   10.4197   -5.5117   18.7007 H   0  0  0  0  0  0  0  0  0  0  0  0
   10.8117   -5.2807   20.7666 H   0  0  0  0  0  0  0  0  0  0  0  0
  1  2  2  0
  2  3  1  0
  3  4  1  0
  4  5  1  0
  5  6  1  0
  6  7  2  0
  6  8  1  0
  8  9  1  0
  8 10  1  0
 10 11  2  0
 11 12  1  0
 12 13  2  0
 13 14  1  0
 13 15  1  0
  4 16  1  0
 16 17  2  0
 17 18  1  0
 18 19  2  0
 19 20  1  0
 20 21  2  0
 15 10  1  0
 21 16  1  0
  1 22  1  0
  1 23  1  0
  2 24  1  0
  3 25  1  0
  3 26  1  0
  4 27  1  0
  8 28  1  0
  9 29  1  0
  9 30  1  0
  9 31  1  0
 11 32  1  0
 12 33  1  0
 17 34  1  0
 18 35  1  0
 19 36  1  0
 20 37  1  0
M  END
>  <Energy>  (1284) 
826.5433061237419

>  <compound_id>  (1284) 
19194

>  <target_id>  (1284) 
1

>  <reference_id>  (1284) 
20

>  <inspiration_ids>  (1284) 
[20, 56]

>  <energy_score>  (1284) 
725.1066825154086

>  <distance_score>  (1284) 
10.169700952106435

>  <path>  (1284) 
/opt/xchem-fragalysis-2/maxwin/BulkDock/SCRATCH/511021/C19194-P20/C19194-P20.minimised.mol

>  <scratch_subdir>  (1284) 
/opt/xchem-fragalysis-2/maxwin/BulkDock/SCRATCH/511021/C19194-P20

>  <fragmenstein_runtime>  (1284) 
6.55199122428894

>  <fragmenstein_outcome>  (1284) 
too moved

>  <fragmenstein_mode>  (1284) 
expansion

>  <fragmenstein_error>  (1284) 


$$$$
C19194-P56
     RDKit          3D

 37 38  0  0  0  0  0  0  0  0999 V2000
    4.4040   -0.8668   32.7115 C   0  0  0  0  0  0  0  0  0  0  0  0
    4.3938   -1.3197   31.4510 C   0  0  0  0  0  0  0  0  0  0  0  0
    5.5920   -1.2536   30.5182 C   0  0  0  0  0  0  0  0  0  0  0  0
    6.0500   -2.6044   29.8808 C   0  0  0  0  0  0  0  0  0  0  0  0
    6.3383   -3.4701   31.0196 O   0  0  0  0  0  0  0  0  0  0  0  0
    5.3571   -4.3785   31.3261 C   0  0  0  0  0  0  0  0  0  0  0  0
    4.7069   -4.9856   30.4816 O   0  0  0  0  0  0  0  0  0  0  0  0
    5.1466   -4.4999   32.8434 C   0  0  0  0  0  0  0  0  0  0  0  0
    3.6431   -4.3813   33.1631 C   0  0  0  0  0  0  0  0  0  0  0  0
    5.7274   -5.7861   33.3936 C   0  0  0  0  0  0  0  0  0  0  0  0
    5.1884   -6.6532   34.3342 C   0  0  0  0  0  0  0  0  0  0  0  0
    6.0359   -7.7633   34.6191 C   0  0  0  0  0  0  0  0  0  0  0  0
    7.2070   -7.6796   33.9132 C   0  0  0  0  0  0  0  0  0  0  0  0
    8.6123   -8.9688   34.0318 Br  0  0  0  0  0  0  0  0  0  0  0  0
    7.3018   -6.3081   32.9272 S   0  0  0  0  0  0  0  0  0  0  0  0
    7.2480   -2.4374   28.9010 C   0  0  0  0  0  0  0  0  0  0  0  0
    8.1516   -3.4799   28.6648 C   0  0  0  0  0  0  0  0  0  0  0  0
    9.1595   -3.3393   27.6949 C   0  0  0  0  0  0  0  0  0  0  0  0
    9.2417   -2.1746   26.9471 C   0  0  0  0  0  0  0  0  0  0  0  0
    8.3141   -1.1901   27.2185 C   0  0  0  0  0  0  0  0  0  0  0  0
    7.3358   -1.2911   28.1624 N   0  0  0  0  0  0  0  0  0  0  0  0
    5.2957   -0.4363   33.1575 H   0  0  0  0  0  0  0  0  0  0  0  0
    3.5095   -0.9105   33.3262 H   0  0  0  0  0  0  0  0  0  0  0  0
    3.4723   -1.7183   31.0306 H   0  0  0  0  0  0  0  0  0  0  0  0
    5.3375   -0.5475   29.7177 H   0  0  0  0  0  0  0  0  0  0  0  0
    6.4441   -0.8189   31.0584 H   0  0  0  0  0  0  0  0  0  0  0  0
    5.2247   -3.0106   29.2817 H   0  0  0  0  0  0  0  0  0  0  0  0
    5.6565   -3.6576   33.3286 H   0  0  0  0  0  0  0  0  0  0  0  0
    3.1919   -3.5154   32.6748 H   0  0  0  0  0  0  0  0  0  0  0  0
    3.0899   -5.2599   32.8119 H   0  0  0  0  0  0  0  0  0  0  0  0
    3.4759   -4.2811   34.2410 H   0  0  0  0  0  0  0  0  0  0  0  0
    4.2187   -6.5142   34.7995 H   0  0  0  0  0  0  0  0  0  0  0  0
    5.7913   -8.5573   35.3134 H   0  0  0  0  0  0  0  0  0  0  0  0
    8.0711   -4.4074   29.2235 H   0  0  0  0  0  0  0  0  0  0  0  0
    9.8601   -4.1503   27.5171 H   0  0  0  0  0  0  0  0  0  0  0  0
   10.0007   -2.0435   26.1859 H   0  0  0  0  0  0  0  0  0  0  0  0
    8.3339   -0.2460   26.6847 H   0  0  0  0  0  0  0  0  0  0  0  0
  1  2  2  0
  2  3  1  0
  3  4  1  0
  4  5  1  0
  5  6  1  0
  6  7  2  0
  6  8  1  0
  8  9  1  0
  8 10  1  0
 10 11  2  0
 11 12  1  0
 12 13  2  0
 13 14  1  0
 13 15  1  0
  4 16  1  0
 16 17  2  0
 17 18  1  0
 18 19  2  0
 19 20  1  0
 20 21  2  0
 15 10  1  0
 21 16  1  0
  1 22  1  0
  1 23  1  0
  2 24  1  0
  3 25  1  0
  3 26  1  0
  4 27  1  0
  8 28  1  0
  9 29  1  0
  9 30  1  0
  9 31  1  0
 11 32  1  0
 12 33  1  0
 17 34  1  0
 18 35  1  0
 19 36  1  0
 20 37  1  0
M  END
>  <Energy>  (1285) 
74.607311554428094

>  <compound_id>  (1285) 
19194

>  <target_id>  (1285) 
1

>  <reference_id>  (1285) 
56

>  <inspiration_ids>  (1285) 
[20, 56]

>  <energy_score>  (1285) 
-26.82931205390875

>  <distance_score>  (1285) 
9.124386331833186

>  <path>  (1285) 
/opt/xchem-fragalysis-2/maxwin/BulkDock/SCRATCH/511021/C19194-P56/C19194-P56.minimised.mol

>  <scratch_subdir>  (1285) 
/opt/xchem-fragalysis-2/maxwin/BulkDock/SCRATCH/511021/C19194-P56

>  <fragmenstein_runtime>  (1285) 
9.809201002120972

>  <fragmenstein_outcome>  (1285) 
too moved

>  <fragmenstein_mode>  (1285) 
expansion

>  <fragmenstein_error>  (1285) 


$$$$
C52085-P20
     RDKit          3D

 35 37  0  0  0  0  0  0  0  0999 V2000
   12.5982   -7.7234   25.7243 O   0  0  0  0  0  0  0  0  0  0  0  0
   12.0508   -6.8125   25.2287 C   0  0  0  0  0  0  0  0  0  0  0  0
   12.3377   -6.0959   23.9400 N   0  0  0  0  0  0  0  0  0  0  0  0
   13.3059   -6.3790   22.8952 C   0  0  0  0  0  0  0  0  0  0  0  0
   13.5713   -5.2426   21.9349 C   0  0  0  0  0  0  0  0  0  0  0  0
   13.3873   -5.3068   20.6185 N   0  0  0  0  0  0  0  0  0  0  0  0
   13.9105   -4.1774   20.0499 C   0  0  0  0  0  0  0  0  0  0  0  0
   14.4522   -3.2701   20.9070 C   0  0  0  0  0  0  0  0  0  0  0  0
   14.3379   -3.7784   22.4956 S   0  0  0  0  0  0  0  0  0  0  0  0
   15.0200   -2.0756   20.2567 C   0  0  0  0  0  0  0  0  0  0  0  0
   14.9529   -2.4878   18.7499 C   0  0  0  0  0  0  0  0  0  0  0  0
   14.0402   -3.7552   18.6394 C   0  0  0  0  0  0  0  0  0  0  0  0
   10.8566   -6.0384   25.6908 N   0  0  0  0  0  0  0  0  0  0  0  0
   10.1326   -6.1192   26.8551 N   0  0  0  0  0  0  0  0  0  0  0  0
    9.3622   -5.1174   27.5654 C   0  0  0  0  0  0  0  0  0  0  0  0
    9.2287   -3.9469   27.3565 O   0  0  0  0  0  0  0  0  0  0  0  0
    8.5328   -5.7087   28.6839 C   0  0  0  0  0  0  0  0  0  0  0  0
    8.3730   -7.0029   29.1681 C   0  0  0  0  0  0  0  0  0  0  0  0
    7.4246   -7.1115   30.2416 C   0  0  0  0  0  0  0  0  0  0  0  0
    6.8625   -5.9010   30.5609 C   0  0  0  0  0  0  0  0  0  0  0  0
    7.4738   -4.6457   29.5796 S   0  0  0  0  0  0  0  0  0  0  0  0
   11.6227   -5.4106   23.7737 H   0  0  0  0  0  0  0  0  0  0  0  0
   12.9179   -7.2397   22.3391 H   0  0  0  0  0  0  0  0  0  0  0  0
   14.2348   -6.7040   23.3761 H   0  0  0  0  0  0  0  0  0  0  0  0
   16.0504   -1.8721   20.5614 H   0  0  0  0  0  0  0  0  0  0  0  0
   14.4059   -1.1891   20.4409 H   0  0  0  0  0  0  0  0  0  0  0  0
   15.9628   -2.7397   18.4009 H   0  0  0  0  0  0  0  0  0  0  0  0
   14.5903   -1.6693   18.1193 H   0  0  0  0  0  0  0  0  0  0  0  0
   14.5389   -4.5000   18.0211 H   0  0  0  0  0  0  0  0  0  0  0  0
   13.0719   -3.5091   18.1984 H   0  0  0  0  0  0  0  0  0  0  0  0
   10.6991   -5.2635   25.0656 H   0  0  0  0  0  0  0  0  0  0  0  0
   10.0822   -6.9950   27.3601 H   0  0  0  0  0  0  0  0  0  0  0  0
    8.9127   -7.8648   28.7956 H   0  0  0  0  0  0  0  0  0  0  0  0
    7.1952   -8.0337   30.7625 H   0  0  0  0  0  0  0  0  0  0  0  0
    6.1380   -5.6797   31.3341 H   0  0  0  0  0  0  0  0  0  0  0  0
  1  2  2  0
  2  3  1  0
  3  4  1  0
  4  5  1  0
  5  6  2  0
  6  7  1  0
  7  8  2  0
  8  9  1  0
  8 10  1  0
 10 11  1  0
 11 12  1  0
  2 13  1  0
 13 14  1  0
 14 15  1  0
 15 16  2  0
 15 17  1  0
 17 18  2  0
 18 19  1  0
 19 20  2  0
 20 21  1  0
  9  5  1  0
 21 17  1  0
 12  7  1  0
  3 22  1  0
  4 23  1  0
  4 24  1  0
 10 25  1  0
 10 26  1  0
 11 27  1  0
 11 28  1  0
 12 29  1  0
 12 30  1  0
 13 31  1  0
 14 32  1  0
 18 33  1  0
 19 34  1  0
 20 35  1  0
M  END
>  <Energy>  (1286) 
54.655859669052063

>  <compound_id>  (1286) 
52085

>  <target_id>  (1286) 
1

>  <reference_id>  (1286) 
20

>  <inspiration_ids>  (1286) 
[20, 56]

>  <energy_score>  (1286) 
-51.70794939195762

>  <distance_score>  (1286) 
10.07119071865963

>  <path>  (1286) 
/opt/xchem-fragalysis-2/maxwin/BulkDock/SCRATCH/511021/C52085-P20/C52085-P20.minimised.mol

>  <scratch_subdir>  (1286) 
/opt/xchem-fragalysis-2/maxwin/BulkDock/SCRATCH/511021/C52085-P20

>  <fragmenstein_runtime>  (1286) 
8.043692588806152

>  <fragmenstein_outcome>  (1286) 
too moved

>  <fragmenstein_mode>  (1286) 
expansion

>  <fragmenstein_error>  (1286) 


$$$$
C52085-P56
     RDKit          3D

 35 37  0  0  0  0  0  0  0  0999 V2000
    8.5962   -2.6689   26.0793 O   0  0  0  0  0  0  0  0  0  0  0  0
    7.6462   -2.3215   25.4710 C   0  0  0  0  0  0  0  0  0  0  0  0
    7.0629   -2.8682   24.1460 N   0  0  0  0  0  0  0  0  0  0  0  0
    7.4871   -4.1256   23.2598 C   0  0  0  0  0  0  0  0  0  0  0  0
    7.9682   -5.8486   23.3382 C   0  0  0  0  0  0  0  0  0  0  0  0
    8.6325   -6.4526   24.3422 N   0  0  0  0  0  0  0  0  0  0  0  0
    9.5417   -7.3094   23.7982 C   0  0  0  0  0  0  0  0  0  0  0  0
    9.4133   -7.6047   22.4770 C   0  0  0  0  0  0  0  0  0  0  0  0
    8.0685   -6.8716   21.8176 S   0  0  0  0  0  0  0  0  0  0  0  0
   10.5459   -8.3795   21.9397 C   0  0  0  0  0  0  0  0  0  0  0  0
   11.2409   -8.8506   23.2502 C   0  0  0  0  0  0  0  0  0  0  0  0
   10.7837   -7.8666   24.3729 C   0  0  0  0  0  0  0  0  0  0  0  0
    6.5928   -1.3021   25.8131 N   0  0  0  0  0  0  0  0  0  0  0  0
    6.3931   -0.5829   26.9497 N   0  0  0  0  0  0  0  0  0  0  0  0
    7.3196   -0.0586   27.9064 C   0  0  0  0  0  0  0  0  0  0  0  0
    8.5161   -0.0443   27.9094 O   0  0  0  0  0  0  0  0  0  0  0  0
    6.5654    0.4405   29.1032 C   0  0  0  0  0  0  0  0  0  0  0  0
    7.0924    0.7200   30.3566 C   0  0  0  0  0  0  0  0  0  0  0  0
    6.1054    0.7796   31.3915 C   0  0  0  0  0  0  0  0  0  0  0  0
    4.8342    0.5903   30.9059 C   0  0  0  0  0  0  0  0  0  0  0  0
    4.8336    0.3754   29.2129 S   0  0  0  0  0  0  0  0  0  0  0  0
    6.2932   -2.2938   23.8585 H   0  0  0  0  0  0  0  0  0  0  0  0
    6.6163   -4.6135   23.6056 H   0  0  0  0  0  0  0  0  0  0  0  0
    7.5539   -3.7061   22.2679 H   0  0  0  0  0  0  0  0  0  0  0  0
   11.2382   -7.7151   21.4223 H   0  0  0  0  0  0  0  0  0  0  0  0
   10.2570   -9.2168   21.3010 H   0  0  0  0  0  0  0  0  0  0  0  0
   12.3302   -8.8968   23.1546 H   0  0  0  0  0  0  0  0  0  0  0  0
   10.8883   -9.8607   23.4979 H   0  0  0  0  0  0  0  0  0  0  0  0
   11.5277   -7.0768   24.5183 H   0  0  0  0  0  0  0  0  0  0  0  0
   10.6162   -8.3900   25.3177 H   0  0  0  0  0  0  0  0  0  0  0  0
    5.8779   -1.3135   25.1085 H   0  0  0  0  0  0  0  0  0  0  0  0
    5.4506   -0.4920   27.3173 H   0  0  0  0  0  0  0  0  0  0  0  0
    8.1610    0.7795   30.5344 H   0  0  0  0  0  0  0  0  0  0  0  0
    6.3283    0.9405   32.4396 H   0  0  0  0  0  0  0  0  0  0  0  0
    3.9061    0.5845   31.4615 H   0  0  0  0  0  0  0  0  0  0  0  0
  1  2  2  0
  2  3  1  0
  3  4  1  0
  4  5  1  0
  5  6  2  0
  6  7  1  0
  7  8  2  0
  8  9  1  0
  8 10  1  0
 10 11  1  0
 11 12  1  0
  2 13  1  0
 13 14  1  0
 14 15  1  0
 15 16  2  0
 15 17  1  0
 17 18  2  0
 18 19  1  0
 19 20  2  0
 20 21  1  0
  9  5  1  0
 21 17  1  0
 12  7  1  0
  3 22  1  0
  4 23  1  0
  4 24  1  0
 10 25  1  0
 10 26  1  0
 11 27  1  0
 11 28  1  0
 12 29  1  0
 12 30  1  0
 13 31  1  0
 14 32  1  0
 18 33  1  0
 19 34  1  0
 20 35  1  0
M  END
>  <Energy>  (1287) 
157.45487013445302

>  <compound_id>  (1287) 
52085

>  <target_id>  (1287) 
1

>  <reference_id>  (1287) 
56

>  <inspiration_ids>  (1287) 
[20, 56]

>  <energy_score>  (1287) 
51.09106107343956

>  <distance_score>  (1287) 
10.646961582445588

>  <path>  (1287) 
/opt/xchem-fragalysis-2/maxwin/BulkDock/SCRATCH/511021/C52085-P56/C52085-P56.minimised.mol

>  <scratch_subdir>  (1287) 
/opt/xchem-fragalysis-2/maxwin/BulkDock/SCRATCH/511021/C52085-P56

>  <fragmenstein_runtime>  (1287) 
8.995476007461548

>  <fragmenstein_outcome>  (1287) 
too moved

>  <fragmenstein_mode>  (1287) 
expansion

>  <fragmenstein_error>  (1287) 


$$$$
C51598-P52
     RDKit          3D

 40 42  0  0  0  0  0  0  0  0999 V2000
   -6.9451  -13.6162   34.1801 N   0  0  0  0  0  0  0  0  0  0  0  0
   -7.6671  -13.6218   32.8909 C   0  0  0  0  0  0  0  0  0  0  0  0
   -7.7446  -11.8815   31.8319 C   0  0  0  0  0  0  0  0  0  0  0  0
   -6.8227  -10.1476   31.0140 C   0  0  0  0  0  0  0  0  0  0  0  0
   -5.9898   -8.3895   31.4949 N   0  0  0  0  0  0  0  0  0  0  0  0
   -5.5989   -7.4941   33.0004 C   0  0  0  0  0  0  0  0  0  0  0  0
   -4.8248   -6.1202   33.1307 C   0  0  0  0  0  0  0  0  0  0  0  0
   -4.1495   -5.5852   31.9635 N   0  0  0  0  0  0  0  0  0  0  0  0
   -3.6427   -6.7357   31.2753 C   0  0  0  0  0  0  0  0  0  0  0  0
   -4.8238   -7.6232   30.7457 C   0  0  0  0  0  0  0  0  0  0  0  0
   -8.8677  -14.7563   33.5118 C   0  0  0  0  0  0  0  0  0  0  0  0
   -8.4851  -16.0930   33.5874 C   0  0  0  0  0  0  0  0  0  0  0  0
   -9.5147  -17.0957   33.5747 C   0  0  0  0  0  0  0  0  0  0  0  0
  -10.7572  -16.8306   34.2466 C   0  0  0  0  0  0  0  0  0  0  0  0
  -11.8533  -17.5605   34.6210 N   0  0  0  0  0  0  0  0  0  0  0  0
  -12.6787  -16.7197   35.3152 C   0  0  0  0  0  0  0  0  0  0  0  0
  -12.2065  -15.4905   35.3652 N   0  0  0  0  0  0  0  0  0  0  0  0
  -11.0011  -15.5412   34.6995 C   0  0  0  0  0  0  0  0  0  0  0  0
  -10.0913  -14.5307   34.2388 C   0  0  0  0  0  0  0  0  0  0  0  0
   -7.6421  -13.2489   34.8313 H   0  0  0  0  0  0  0  0  0  0  0  0
   -6.8639  -14.5794   34.5089 H   0  0  0  0  0  0  0  0  0  0  0  0
   -6.9970  -14.2826   32.3490 H   0  0  0  0  0  0  0  0  0  0  0  0
   -8.6439  -11.4370   32.2625 H   0  0  0  0  0  0  0  0  0  0  0  0
   -7.7977  -12.4854   30.9000 H   0  0  0  0  0  0  0  0  0  0  0  0
   -6.1063  -10.4283   30.2256 H   0  0  0  0  0  0  0  0  0  0  0  0
   -7.8012   -9.9111   30.7272 H   0  0  0  0  0  0  0  0  0  0  0  0
   -6.3944   -7.5115   33.7357 H   0  0  0  0  0  0  0  0  0  0  0  0
   -4.8941   -8.0666   33.6200 H   0  0  0  0  0  0  0  0  0  0  0  0
   -5.4531   -5.3565   33.5722 H   0  0  0  0  0  0  0  0  0  0  0  0
   -4.0545   -6.2553   33.8979 H   0  0  0  0  0  0  0  0  0  0  0  0
   -3.3606   -5.0172   32.2855 H   0  0  0  0  0  0  0  0  0  0  0  0
   -3.0532   -6.3924   30.4175 H   0  0  0  0  0  0  0  0  0  0  0  0
   -2.9441   -7.3063   31.9006 H   0  0  0  0  0  0  0  0  0  0  0  0
   -5.3529   -6.9188   30.0964 H   0  0  0  0  0  0  0  0  0  0  0  0
   -4.1712   -8.3680   30.2973 H   0  0  0  0  0  0  0  0  0  0  0  0
   -7.4811  -16.3854   33.2760 H   0  0  0  0  0  0  0  0  0  0  0  0
   -9.2922  -18.0606   33.1456 H   0  0  0  0  0  0  0  0  0  0  0  0
  -11.9803  -18.5530   34.4877 H   0  0  0  0  0  0  0  0  0  0  0  0
  -13.6056  -17.0578   35.7572 H   0  0  0  0  0  0  0  0  0  0  0  0
  -10.5142  -13.5727   34.4032 H   0  0  0  0  0  0  0  0  0  0  0  0
  1  2  1  0
  2  3  1  0
  3  4  1  0
  4  5  1  0
  5  6  1  0
  6  7  1  0
  7  8  1  0
  8  9  1  0
  9 10  1  0
  2 11  1  0
 11 12  2  0
 12 13  1  0
 13 14  2  0
 14 15  1  0
 15 16  1  0
 16 17  2  0
 17 18  1  0
 18 19  2  0
 10  5  1  0
 19 11  1  0
 18 14  1  0
  1 20  1  0
  1 21  1  0
  2 22  1  0
  3 23  1  0
  3 24  1  0
  4 25  1  0
  4 26  1  0
  6 27  1  0
  6 28  1  0
  7 29  1  0
  7 30  1  0
  8 31  1  0
  9 32  1  0
  9 33  1  0
 10 34  1  0
 10 35  1  0
 12 36  1  0
 13 37  1  0
 15 38  1  0
 16 39  1  0
 19 40  1  0
M  END
>  <Energy>  (1288) 
539.54050160748295

>  <compound_id>  (1288) 
51598

>  <target_id>  (1288) 
1

>  <reference_id>  (1288) 
52

>  <inspiration_ids>  (1288) 
[52, 70]

>  <energy_score>  (1288) 
422.29099358696817

>  <distance_score>  (1288) 
8.48341905554145

>  <path>  (1288) 
/opt/xchem-fragalysis-2/maxwin/BulkDock/SCRATCH/511021/C51598-P52/C51598-P52.minimised.mol

>  <scratch_subdir>  (1288) 
/opt/xchem-fragalysis-2/maxwin/BulkDock/SCRATCH/511021/C51598-P52

>  <fragmenstein_runtime>  (1288) 
36.861212968826294

>  <fragmenstein_outcome>  (1288) 
too moved

>  <fragmenstein_mode>  (1288) 
expansion

>  <fragmenstein_error>  (1288) 


$$$$
C51598-P70
     RDKit          3D

 40 42  0  0  0  0  0  0  0  0999 V2000
   -6.5882  -17.3256   32.4632 N   0  0  0  0  0  0  0  0  0  0  0  0
   -7.4338  -16.2310   32.9474 C   0  0  0  0  0  0  0  0  0  0  0  0
   -7.7899  -14.6863   31.9087 C   0  0  0  0  0  0  0  0  0  0  0  0
   -6.7645  -12.9913   31.5012 C   0  0  0  0  0  0  0  0  0  0  0  0
   -5.4581  -11.8238   31.0048 N   0  0  0  0  0  0  0  0  0  0  0  0
   -4.7713  -10.5085   31.9135 C   0  0  0  0  0  0  0  0  0  0  0  0
   -3.1670  -10.0629   31.7510 C   0  0  0  0  0  0  0  0  0  0  0  0
   -2.4013  -10.6888   30.6627 N   0  0  0  0  0  0  0  0  0  0  0  0
   -3.0218  -11.8339   29.8246 C   0  0  0  0  0  0  0  0  0  0  0  0
   -4.5579  -12.3541   29.9234 C   0  0  0  0  0  0  0  0  0  0  0  0
   -8.5279  -16.8947   33.9483 C   0  0  0  0  0  0  0  0  0  0  0  0
   -9.8995  -16.6947   33.8147 C   0  0  0  0  0  0  0  0  0  0  0  0
  -10.8902  -16.9846   34.7778 C   0  0  0  0  0  0  0  0  0  0  0  0
  -10.4087  -17.3095   36.0246 C   0  0  0  0  0  0  0  0  0  0  0  0
  -11.0202  -17.5339   37.2254 N   0  0  0  0  0  0  0  0  0  0  0  0
  -10.0385  -17.6782   38.1625 C   0  0  0  0  0  0  0  0  0  0  0  0
   -8.8394  -17.6283   37.6229 N   0  0  0  0  0  0  0  0  0  0  0  0
   -9.0520  -17.4330   36.2788 C   0  0  0  0  0  0  0  0  0  0  0  0
   -8.1351  -17.3382   35.2128 C   0  0  0  0  0  0  0  0  0  0  0  0
   -7.0027  -17.9025   31.7293 H   0  0  0  0  0  0  0  0  0  0  0  0
   -6.5983  -18.0184   33.2109 H   0  0  0  0  0  0  0  0  0  0  0  0
   -6.7725  -15.8083   33.7011 H   0  0  0  0  0  0  0  0  0  0  0  0
   -8.8848  -14.6248   31.9626 H   0  0  0  0  0  0  0  0  0  0  0  0
   -7.8003  -14.8922   30.8838 H   0  0  0  0  0  0  0  0  0  0  0  0
   -6.5321  -13.5710   30.5837 H   0  0  0  0  0  0  0  0  0  0  0  0
   -7.4343  -12.1650   31.7037 H   0  0  0  0  0  0  0  0  0  0  0  0
   -5.1350  -10.3944   32.9303 H   0  0  0  0  0  0  0  0  0  0  0  0
   -5.1352   -9.5944   31.4721 H   0  0  0  0  0  0  0  0  0  0  0  0
   -2.5985  -10.1315   32.6864 H   0  0  0  0  0  0  0  0  0  0  0  0
   -3.1598   -8.9784   31.5812 H   0  0  0  0  0  0  0  0  0  0  0  0
   -1.4203  -10.8292   30.8007 H   0  0  0  0  0  0  0  0  0  0  0  0
   -2.8193  -11.6885   28.7725 H   0  0  0  0  0  0  0  0  0  0  0  0
   -2.3732  -12.6547   29.8986 H   0  0  0  0  0  0  0  0  0  0  0  0
   -4.6226  -13.4126   29.7571 H   0  0  0  0  0  0  0  0  0  0  0  0
   -5.0663  -12.1837   28.9883 H   0  0  0  0  0  0  0  0  0  0  0  0
  -10.2153  -16.1169   32.9488 H   0  0  0  0  0  0  0  0  0  0  0  0
  -11.9388  -16.8141   34.5713 H   0  0  0  0  0  0  0  0  0  0  0  0
  -12.0143  -17.5346   37.3995 H   0  0  0  0  0  0  0  0  0  0  0  0
  -10.2533  -17.8310   39.2122 H   0  0  0  0  0  0  0  0  0  0  0  0
   -7.1022  -17.4899   35.4158 H   0  0  0  0  0  0  0  0  0  0  0  0
  1  2  1  0
  2  3  1  0
  3  4  1  0
  4  5  1  0
  5  6  1  0
  6  7  1  0
  7  8  1  0
  8  9  1  0
  9 10  1  0
  2 11  1  0
 11 12  2  0
 12 13  1  0
 13 14  2  0
 14 15  1  0
 15 16  1  0
 16 17  2  0
 17 18  1  0
 18 19  2  0
 10  5  1  0
 19 11  1  0
 18 14  1  0
  1 20  1  0
  1 21  1  0
  2 22  1  0
  3 23  1  0
  3 24  1  0
  4 25  1  0
  4 26  1  0
  6 27  1  0
  6 28  1  0
  7 29  1  0
  7 30  1  0
  8 31  1  0
  9 32  1  0
  9 33  1  0
 10 34  1  0
 10 35  1  0
 12 36  1  0
 13 37  1  0
 15 38  1  0
 16 39  1  0
 19 40  1  0
M  END
>  <Energy>  (1289) 
388.90765026730287

>  <compound_id>  (1289) 
51598

>  <target_id>  (1289) 
1

>  <reference_id>  (1289) 
70

>  <inspiration_ids>  (1289) 
[52, 70]

>  <energy_score>  (1289) 
271.6581422467963

>  <distance_score>  (1289) 
10.33099742189241

>  <path>  (1289) 
/opt/xchem-fragalysis-2/maxwin/BulkDock/SCRATCH/511021/C51598-P70/C51598-P70.minimised.mol

>  <scratch_subdir>  (1289) 
/opt/xchem-fragalysis-2/maxwin/BulkDock/SCRATCH/511021/C51598-P70

>  <fragmenstein_runtime>  (1289) 
40.94126272201538

>  <fragmenstein_outcome>  (1289) 
too moved

>  <fragmenstein_mode>  (1289) 
expansion

>  <fragmenstein_error>  (1289) 


$$$$
C51606-P52
     RDKit          3D

 38 41  0  0  0  0  0  0  0  0999 V2000
   -3.9695  -14.7180   28.0789 O   0  0  0  0  0  0  0  0  0  0  0  0
   -2.9498  -14.1581   27.7361 C   0  0  0  0  0  0  0  0  0  0  0  0
   -2.4201  -12.6131   28.0339 N   0  0  0  0  0  0  0  0  0  0  0  0
   -3.2945  -11.0613   28.9166 C   0  0  0  0  0  0  0  0  0  0  0  0
   -5.0812  -10.8842   29.2105 C   0  0  0  0  0  0  0  0  0  0  0  0
   -5.7551   -9.6340   30.2066 C   0  0  0  0  0  0  0  0  0  0  0  0
   -4.6819   -8.1476   30.5984 C   0  0  0  0  0  0  0  0  0  0  0  0
   -3.5493   -8.5090   29.6934 N   0  0  0  0  0  0  0  0  0  0  0  0
   -2.3257   -8.0938   30.0642 C   0  0  0  0  0  0  0  0  0  0  0  0
   -2.0714   -9.5387   29.4638 C   0  0  0  0  0  0  0  0  0  0  0  0
   -3.3933   -9.7512   28.3372 C   0  0  0  0  0  0  0  0  0  0  0  0
   -2.0524  -15.1796   26.6737 C   0  0  0  0  0  0  0  0  0  0  0  0
   -0.7646  -14.9999   26.2039 C   0  0  0  0  0  0  0  0  0  0  0  0
   -0.0173  -16.0879   25.7236 C   0  0  0  0  0  0  0  0  0  0  0  0
    1.7885  -15.7750   25.2176 Br  0  0  0  0  0  0  0  0  0  0  0  0
   -0.5158  -17.3896   25.6069 C   0  0  0  0  0  0  0  0  0  0  0  0
   -1.8634  -17.5397   25.8740 C   0  0  0  0  0  0  0  0  0  0  0  0
   -2.6836  -18.6436   25.7918 N   0  0  0  0  0  0  0  0  0  0  0  0
   -3.9423  -18.2515   26.0999 C   0  0  0  0  0  0  0  0  0  0  0  0
   -3.9469  -16.9843   26.4257 N   0  0  0  0  0  0  0  0  0  0  0  0
   -2.6547  -16.4878   26.3303 C   0  0  0  0  0  0  0  0  0  0  0  0
   -1.5134  -12.5011   27.6815 H   0  0  0  0  0  0  0  0  0  0  0  0
   -5.5717  -10.7146   28.2663 H   0  0  0  0  0  0  0  0  0  0  0  0
   -5.5810  -11.8328   29.4141 H   0  0  0  0  0  0  0  0  0  0  0  0
   -6.5594   -9.2057   29.5813 H   0  0  0  0  0  0  0  0  0  0  0  0
   -6.5362   -9.9407   30.8737 H   0  0  0  0  0  0  0  0  0  0  0  0
   -5.2219   -7.2292   30.2638 H   0  0  0  0  0  0  0  0  0  0  0  0
   -4.4646   -7.6106   31.5291 H   0  0  0  0  0  0  0  0  0  0  0  0
   -1.8745   -7.2677   29.5019 H   0  0  0  0  0  0  0  0  0  0  0  0
   -2.2214   -7.9001   31.1404 H   0  0  0  0  0  0  0  0  0  0  0  0
   -1.3883   -8.9737   28.7248 H   0  0  0  0  0  0  0  0  0  0  0  0
   -1.3804  -10.2636   30.0532 H   0  0  0  0  0  0  0  0  0  0  0  0
   -4.0614  -10.0839   27.5599 H   0  0  0  0  0  0  0  0  0  0  0  0
   -2.6974   -9.3094   27.5972 H   0  0  0  0  0  0  0  0  0  0  0  0
   -0.3025  -14.0369   26.2228 H   0  0  0  0  0  0  0  0  0  0  0  0
    0.0976  -18.2102   25.2520 H   0  0  0  0  0  0  0  0  0  0  0  0
   -2.4046  -19.5699   25.5031 H   0  0  0  0  0  0  0  0  0  0  0  0
   -4.7997  -18.9108   26.0834 H   0  0  0  0  0  0  0  0  0  0  0  0
  1  2  2  0
  2  3  1  0
  3  4  1  0
  4  5  1  0
  5  6  1  0
  6  7  1  0
  7  8  1  0
  8  9  1  0
  9 10  1  0
  8 11  1  0
  2 12  1  0
 12 13  2  0
 13 14  1  0
 14 15  1  0
 14 16  2  0
 16 17  1  0
 17 18  1  0
 18 19  1  0
 19 20  2  0
 20 21  1  0
 10  4  1  0
 21 12  1  0
 11  4  1  0
 21 17  2  0
  3 22  1  0
  5 23  1  0
  5 24  1  0
  6 25  1  0
  6 26  1  0
  7 27  1  0
  7 28  1  0
  9 29  1  0
  9 30  1  0
 10 31  1  0
 10 32  1  0
 11 33  1  0
 11 34  1  0
 13 35  1  0
 16 36  1  0
 18 37  1  0
 19 38  1  0
M  END
>  <Energy>  (1290) 
579.99608785304429

>  <compound_id>  (1290) 
51606

>  <target_id>  (1290) 
1

>  <reference_id>  (1290) 
52

>  <inspiration_ids>  (1290) 
[52, 70]

>  <energy_score>  (1290) 
509.8841060645984

>  <distance_score>  (1290) 
12.13431463993249

>  <path>  (1290) 
/opt/xchem-fragalysis-2/maxwin/BulkDock/SCRATCH/511021/C51606-P52/C51606-P52.minimised.mol

>  <scratch_subdir>  (1290) 
/opt/xchem-fragalysis-2/maxwin/BulkDock/SCRATCH/511021/C51606-P52

>  <fragmenstein_runtime>  (1290) 
13.291113138198853

>  <fragmenstein_outcome>  (1290) 
too moved

>  <fragmenstein_mode>  (1290) 
expansion

>  <fragmenstein_error>  (1290) 


$$$$
C51606-P70
     RDKit          3D

 38 41  0  0  0  0  0  0  0  0999 V2000
   -4.2038  -12.0243   29.3773 O   0  0  0  0  0  0  0  0  0  0  0  0
   -5.4138  -11.8142   29.2497 C   0  0  0  0  0  0  0  0  0  0  0  0
   -6.0215   -9.8236   29.0772 N   0  0  0  0  0  0  0  0  0  0  0  0
   -4.8668   -7.9956   28.9009 C   0  0  0  0  0  0  0  0  0  0  0  0
   -5.7339   -5.9676   28.9456 C   0  0  0  0  0  0  0  0  0  0  0  0
   -4.7930   -4.0831   28.5081 C   0  0  0  0  0  0  0  0  0  0  0  0
   -2.6285   -4.0968   28.8228 C   0  0  0  0  0  0  0  0  0  0  0  0
   -1.8320   -5.9089   28.2802 N   0  0  0  0  0  0  0  0  0  0  0  0
   -1.6161   -6.9983   29.7554 C   0  0  0  0  0  0  0  0  0  0  0  0
   -3.2235   -7.8920   30.2250 C   0  0  0  0  0  0  0  0  0  0  0  0
   -3.0751   -7.3609   27.9793 C   0  0  0  0  0  0  0  0  0  0  0  0
   -6.3373  -13.6248   29.0666 C   0  0  0  0  0  0  0  0  0  0  0  0
   -6.9639  -14.3348   27.8307 C   0  0  0  0  0  0  0  0  0  0  0  0
   -6.7184  -15.7882   27.5193 C   0  0  0  0  0  0  0  0  0  0  0  0
   -7.6050  -16.5739   26.0035 Br  0  0  0  0  0  0  0  0  0  0  0  0
   -5.8101  -16.6629   28.3405 C   0  0  0  0  0  0  0  0  0  0  0  0
   -5.6833  -16.1895   29.7342 C   0  0  0  0  0  0  0  0  0  0  0  0
   -5.7197  -17.0542   31.1981 N   0  0  0  0  0  0  0  0  0  0  0  0
   -6.7514  -16.3494   32.2556 C   0  0  0  0  0  0  0  0  0  0  0  0
   -7.4092  -15.0672   31.4583 N   0  0  0  0  0  0  0  0  0  0  0  0
   -6.2719  -14.7174   30.1250 C   0  0  0  0  0  0  0  0  0  0  0  0
   -7.0195   -9.7994   28.8938 H   0  0  0  0  0  0  0  0  0  0  0  0
   -5.9395   -5.6425   29.9770 H   0  0  0  0  0  0  0  0  0  0  0  0
   -6.4155   -5.7801   28.1143 H   0  0  0  0  0  0  0  0  0  0  0  0
   -5.2942   -3.5461   29.3327 H   0  0  0  0  0  0  0  0  0  0  0  0
   -4.9836   -3.4278   27.6556 H   0  0  0  0  0  0  0  0  0  0  0  0
   -2.3049   -3.9020   29.8941 H   0  0  0  0  0  0  0  0  0  0  0  0
   -2.0320   -3.2471   28.3832 H   0  0  0  0  0  0  0  0  0  0  0  0
   -0.8339   -7.7200   29.4811 H   0  0  0  0  0  0  0  0  0  0  0  0
   -1.2534   -6.3673   30.5814 H   0  0  0  0  0  0  0  0  0  0  0  0
   -3.1735   -7.6066   31.2921 H   0  0  0  0  0  0  0  0  0  0  0  0
   -3.2171   -8.8467   30.8589 H   0  0  0  0  0  0  0  0  0  0  0  0
   -3.2171   -7.3494   26.8772 H   0  0  0  0  0  0  0  0  0  0  0  0
   -2.1374   -7.8586   28.1453 H   0  0  0  0  0  0  0  0  0  0  0  0
   -7.3703  -13.7368   27.0149 H   0  0  0  0  0  0  0  0  0  0  0  0
   -5.6311  -17.7049   28.0881 H   0  0  0  0  0  0  0  0  0  0  0  0
   -5.7118  -18.0628   31.1517 H   0  0  0  0  0  0  0  0  0  0  0  0
   -7.1618  -16.8830   33.1028 H   0  0  0  0  0  0  0  0  0  0  0  0
  1  2  2  0
  2  3  1  0
  3  4  1  0
  4  5  1  0
  5  6  1  0
  6  7  1  0
  7  8  1  0
  8  9  1  0
  9 10  1  0
  8 11  1  0
  2 12  1  0
 12 13  2  0
 13 14  1  0
 14 15  1  0
 14 16  2  0
 16 17  1  0
 17 18  1  0
 18 19  1  0
 19 20  2  0
 20 21  1  0
 10  4  1  0
 21 12  1  0
 11  4  1  0
 21 17  2  0
  3 22  1  0
  5 23  1  0
  5 24  1  0
  6 25  1  0
  6 26  1  0
  7 27  1  0
  7 28  1  0
  9 29  1  0
  9 30  1  0
 10 31  1  0
 10 32  1  0
 11 33  1  0
 11 34  1  0
 13 35  1  0
 16 36  1  0
 18 37  1  0
 19 38  1  0
M  END
>  <Energy>  (1291) 
1524.2249367020104

>  <compound_id>  (1291) 
51606

>  <target_id>  (1291) 
1

>  <reference_id>  (1291) 
70

>  <inspiration_ids>  (1291) 
[52, 70]

>  <energy_score>  (1291) 
1454.1129549135917

>  <distance_score>  (1291) 
8.800514801315373

>  <path>  (1291) 
/opt/xchem-fragalysis-2/maxwin/BulkDock/SCRATCH/511021/C51606-P70/C51606-P70.minimised.mol

>  <scratch_subdir>  (1291) 
/opt/xchem-fragalysis-2/maxwin/BulkDock/SCRATCH/511021/C51606-P70

>  <fragmenstein_runtime>  (1291) 
15.421730041503906

>  <fragmenstein_outcome>  (1291) 
too moved

>  <fragmenstein_mode>  (1291) 
expansion

>  <fragmenstein_error>  (1291) 


$$$$
C59352-P68
     RDKit          3D

 45 47  0  0  0  0  0  0  0  0999 V2000
    0.4198  -22.8803   18.2424 C   0  0  0  0  0  0  0  0  0  0  0  0
    1.0156  -23.1278   19.6249 C   0  0  0  0  0  0  0  0  0  0  0  0
    1.0048  -21.6602   20.6656 C   0  0  0  0  0  0  0  0  0  0  0  0
    2.3326  -20.7443   20.4901 N   0  0  0  0  0  0  0  0  0  0  0  0
    3.3052  -19.8292   21.6817 C   0  0  0  0  0  0  0  0  0  0  0  0
    3.0142  -19.7115   22.8509 O   0  0  0  0  0  0  0  0  0  0  0  0
    5.1940  -18.9717   21.3293 C   0  0  0  0  0  0  0  0  0  0  0  0
    6.9533  -18.8422   21.1278 C   0  0  0  0  0  0  0  0  0  0  0  0
    7.5649  -17.4672   20.5256 C   0  0  0  0  0  0  0  0  0  0  0  0
    7.8631  -17.0902   19.2231 C   0  0  0  0  0  0  0  0  0  0  0  0
    8.3188  -15.7920   19.2738 N   0  0  0  0  0  0  0  0  0  0  0  0
    8.3880  -15.4380   20.5868 C   0  0  0  0  0  0  0  0  0  0  0  0
    7.9670  -16.4171   21.3632 N   0  0  0  0  0  0  0  0  0  0  0  0
    1.3463  -24.7502   19.7430 N   0  0  0  0  0  0  0  0  0  0  0  0
    2.3011  -25.0479   18.5869 C   0  0  0  0  0  0  0  0  0  0  0  0
    0.7848  -26.0264   20.1566 C   0  0  0  0  0  0  0  0  0  0  0  0
    1.1685  -27.1537   19.5451 N   0  0  0  0  0  0  0  0  0  0  0  0
    0.4722  -28.3275   19.8778 C   0  0  0  0  0  0  0  0  0  0  0  0
    0.4478  -29.5826   19.1662 C   0  0  0  0  0  0  0  0  0  0  0  0
   -0.2710  -30.6892   19.6491 C   0  0  0  0  0  0  0  0  0  0  0  0
   -0.9156  -30.5792   20.8692 C   0  0  0  0  0  0  0  0  0  0  0  0
   -0.9556  -29.3624   21.5558 C   0  0  0  0  0  0  0  0  0  0  0  0
   -0.2586  -28.2172   21.0516 C   0  0  0  0  0  0  0  0  0  0  0  0
   -0.1955  -26.5666   21.4731 S   0  0  0  0  0  0  0  0  0  0  0  0
    0.5510  -21.8439   17.9512 H   0  0  0  0  0  0  0  0  0  0  0  0
    0.9686  -23.3820   17.4471 H   0  0  0  0  0  0  0  0  0  0  0  0
   -0.6003  -23.2361   18.1856 H   0  0  0  0  0  0  0  0  0  0  0  0
    2.0145  -22.8218   19.3100 H   0  0  0  0  0  0  0  0  0  0  0  0
    0.2997  -21.0235   20.1326 H   0  0  0  0  0  0  0  0  0  0  0  0
    0.5100  -21.6876   21.6425 H   0  0  0  0  0  0  0  0  0  0  0  0
    2.8260  -20.7666   19.6056 H   0  0  0  0  0  0  0  0  0  0  0  0
    5.3022  -18.5948   22.3158 H   0  0  0  0  0  0  0  0  0  0  0  0
    5.2198  -18.1060   20.7135 H   0  0  0  0  0  0  0  0  0  0  0  0
    7.3675  -19.6737   20.5595 H   0  0  0  0  0  0  0  0  0  0  0  0
    7.3958  -18.8631   22.1315 H   0  0  0  0  0  0  0  0  0  0  0  0
    7.7696  -17.6004   18.2769 H   0  0  0  0  0  0  0  0  0  0  0  0
    8.5796  -15.2152   18.4858 H   0  0  0  0  0  0  0  0  0  0  0  0
    8.7451  -14.4720   20.9175 H   0  0  0  0  0  0  0  0  0  0  0  0
    1.7209  -25.2478   17.6992 H   0  0  0  0  0  0  0  0  0  0  0  0
    2.9311  -24.2080   18.2651 H   0  0  0  0  0  0  0  0  0  0  0  0
    2.9979  -25.8615   18.8219 H   0  0  0  0  0  0  0  0  0  0  0  0
    1.0267  -29.6811   18.2577 H   0  0  0  0  0  0  0  0  0  0  0  0
   -0.2690  -31.6280   19.1071 H   0  0  0  0  0  0  0  0  0  0  0  0
   -1.3961  -31.4204   21.3292 H   0  0  0  0  0  0  0  0  0  0  0  0
   -1.6756  -29.3183   22.3494 H   0  0  0  0  0  0  0  0  0  0  0  0
  1  2  1  0
  2  3  1  0
  3  4  1  0
  4  5  1  0
  5  6  2  0
  5  7  1  0
  7  8  1  0
  8  9  1  0
  9 10  2  0
 10 11  1  0
 11 12  1  0
 12 13  2  0
  2 14  1  0
 14 15  1  0
 14 16  1  0
 16 17  2  0
 17 18  1  0
 18 19  2  0
 19 20  1  0
 20 21  2  0
 21 22  1  0
 22 23  2  0
 23 24  1  0
 13  9  1  0
 24 16  1  0
 23 18  1  0
  1 25  1  0
  1 26  1  0
  1 27  1  0
  2 28  1  0
  3 29  1  0
  3 30  1  0
  4 31  1  0
  7 32  1  0
  7 33  1  0
  8 34  1  0
  8 35  1  0
 10 36  1  0
 11 37  1  0
 12 38  1  0
 15 39  1  0
 15 40  1  0
 15 41  1  0
 19 42  1  0
 20 43  1  0
 21 44  1  0
 22 45  1  0
M  END
>  <Energy>  (1292) 
354.65426511797358

>  <compound_id>  (1292) 
59352

>  <target_id>  (1292) 
1

>  <reference_id>  (1292) 
68

>  <inspiration_ids>  (1292) 
[68, 80]

>  <energy_score>  (1292) 
303.0476609819026

>  <distance_score>  (1292) 
13.866259654048395

>  <path>  (1292) 
/opt/xchem-fragalysis-2/maxwin/BulkDock/SCRATCH/511021/C59352-P68/C59352-P68.minimised.mol

>  <scratch_subdir>  (1292) 
/opt/xchem-fragalysis-2/maxwin/BulkDock/SCRATCH/511021/C59352-P68

>  <fragmenstein_runtime>  (1292) 
22.90663456916809

>  <fragmenstein_outcome>  (1292) 
too moved

>  <fragmenstein_mode>  (1292) 
expansion

>  <fragmenstein_error>  (1292) 


$$$$
C59352-P80
     RDKit          3D

 45 47  0  0  0  0  0  0  0  0999 V2000
    1.9859  -22.4170   16.4982 C   0  0  0  0  0  0  0  0  0  0  0  0
    2.9732  -23.3807   15.8851 C   0  0  0  0  0  0  0  0  0  0  0  0
    3.7863  -22.5454   14.7205 C   0  0  0  0  0  0  0  0  0  0  0  0
    4.0044  -21.0353   14.7119 N   0  0  0  0  0  0  0  0  0  0  0  0
    5.2382  -20.2390   14.5853 C   0  0  0  0  0  0  0  0  0  0  0  0
    6.3895  -20.5828   14.5383 O   0  0  0  0  0  0  0  0  0  0  0  0
    4.9704  -18.6564   14.3697 C   0  0  0  0  0  0  0  0  0  0  0  0
    6.2882  -17.7475   14.3785 C   0  0  0  0  0  0  0  0  0  0  0  0
    6.2139  -16.2199   14.4629 C   0  0  0  0  0  0  0  0  0  0  0  0
    6.1233  -15.2824   13.4466 C   0  0  0  0  0  0  0  0  0  0  0  0
    6.3394  -14.0553   14.0256 N   0  0  0  0  0  0  0  0  0  0  0  0
    6.5510  -14.2671   15.3559 C   0  0  0  0  0  0  0  0  0  0  0  0
    6.4788  -15.5493   15.6509 N   0  0  0  0  0  0  0  0  0  0  0  0
    2.2671  -24.6912   15.4344 N   0  0  0  0  0  0  0  0  0  0  0  0
    2.4024  -25.0731   14.0309 C   0  0  0  0  0  0  0  0  0  0  0  0
    1.4520  -25.5690   16.2081 C   0  0  0  0  0  0  0  0  0  0  0  0
    0.5121  -26.3501   15.6712 N   0  0  0  0  0  0  0  0  0  0  0  0
   -0.0731  -27.2500   16.5760 C   0  0  0  0  0  0  0  0  0  0  0  0
   -1.0803  -28.2148   16.2976 C   0  0  0  0  0  0  0  0  0  0  0  0
   -1.5007  -29.1231   17.2781 C   0  0  0  0  0  0  0  0  0  0  0  0
   -0.9264  -29.0767   18.5381 C   0  0  0  0  0  0  0  0  0  0  0  0
    0.0182  -28.0885   18.8635 C   0  0  0  0  0  0  0  0  0  0  0  0
    0.4403  -27.1852   17.8633 C   0  0  0  0  0  0  0  0  0  0  0  0
    1.5980  -25.8890   17.9183 S   0  0  0  0  0  0  0  0  0  0  0  0
    2.5073  -21.6606   17.0948 H   0  0  0  0  0  0  0  0  0  0  0  0
    1.2698  -22.9360   17.1360 H   0  0  0  0  0  0  0  0  0  0  0  0
    1.4373  -21.8717   15.7300 H   0  0  0  0  0  0  0  0  0  0  0  0
    3.7138  -23.6698   16.6396 H   0  0  0  0  0  0  0  0  0  0  0  0
    3.2541  -22.6940   13.7759 H   0  0  0  0  0  0  0  0  0  0  0  0
    4.7741  -23.0062   14.6064 H   0  0  0  0  0  0  0  0  0  0  0  0
    3.2084  -20.4052   14.8031 H   0  0  0  0  0  0  0  0  0  0  0  0
    4.2626  -18.3123   15.1225 H   0  0  0  0  0  0  0  0  0  0  0  0
    4.4860  -18.5478   13.3920 H   0  0  0  0  0  0  0  0  0  0  0  0
    6.8459  -17.9944   13.4643 H   0  0  0  0  0  0  0  0  0  0  0  0
    6.9364  -18.0811   15.1981 H   0  0  0  0  0  0  0  0  0  0  0  0
    5.9811  -15.3881   12.3803 H   0  0  0  0  0  0  0  0  0  0  0  0
    6.3616  -13.1628   13.5520 H   0  0  0  0  0  0  0  0  0  0  0  0
    6.7536  -13.4662   16.0541 H   0  0  0  0  0  0  0  0  0  0  0  0
    2.1261  -26.1169   13.8413 H   0  0  0  0  0  0  0  0  0  0  0  0
    3.4446  -24.9852   13.7068 H   0  0  0  0  0  0  0  0  0  0  0  0
    1.7756  -24.4399   13.3960 H   0  0  0  0  0  0  0  0  0  0  0  0
   -1.4942  -28.2579   15.2951 H   0  0  0  0  0  0  0  0  0  0  0  0
   -2.2553  -29.8687   17.0468 H   0  0  0  0  0  0  0  0  0  0  0  0
   -1.2387  -29.7853   19.3026 H   0  0  0  0  0  0  0  0  0  0  0  0
    0.4218  -28.0276   19.8694 H   0  0  0  0  0  0  0  0  0  0  0  0
  1  2  1  0
  2  3  1  0
  3  4  1  0
  4  5  1  0
  5  6  2  0
  5  7  1  0
  7  8  1  0
  8  9  1  0
  9 10  2  0
 10 11  1  0
 11 12  1  0
 12 13  2  0
  2 14  1  0
 14 15  1  0
 14 16  1  0
 16 17  2  0
 17 18  1  0
 18 19  2  0
 19 20  1  0
 20 21  2  0
 21 22  1  0
 22 23  2  0
 23 24  1  0
 13  9  1  0
 24 16  1  0
 23 18  1  0
  1 25  1  0
  1 26  1  0
  1 27  1  0
  2 28  1  0
  3 29  1  0
  3 30  1  0
  4 31  1  0
  7 32  1  0
  7 33  1  0
  8 34  1  0
  8 35  1  0
 10 36  1  0
 11 37  1  0
 12 38  1  0
 15 39  1  0
 15 40  1  0
 15 41  1  0
 19 42  1  0
 20 43  1  0
 21 44  1  0
 22 45  1  0
M  END
>  <Energy>  (1293) 
36.949002077226176

>  <compound_id>  (1293) 
59352

>  <target_id>  (1293) 
1

>  <reference_id>  (1293) 
80

>  <inspiration_ids>  (1293) 
[68, 80]

>  <energy_score>  (1293) 
-14.657602058845498

>  <distance_score>  (1293) 
14.25488115918402

>  <path>  (1293) 
/opt/xchem-fragalysis-2/maxwin/BulkDock/SCRATCH/511021/C59352-P80/C59352-P80.minimised.mol

>  <scratch_subdir>  (1293) 
/opt/xchem-fragalysis-2/maxwin/BulkDock/SCRATCH/511021/C59352-P80

>  <fragmenstein_runtime>  (1293) 
13.475649356842041

>  <fragmenstein_outcome>  (1293) 
too moved

>  <fragmenstein_mode>  (1293) 
expansion

>  <fragmenstein_error>  (1293) 


$$$$
C32761-P68
     RDKit          3D

 38 41  0  0  0  0  0  0  0  0999 V2000
   -7.8802  -21.0630   19.8289 O   0  0  0  0  0  0  0  0  0  0  0  0
   -7.1717  -20.8669   21.0801 S   0  0  0  0  0  0  0  0  0  0  0  0
   -5.7225  -20.9249   21.0764 O   0  0  0  0  0  0  0  0  0  0  0  0
   -7.6933  -22.2835   22.1070 C   0  0  0  0  0  0  0  0  0  0  0  0
   -8.7646  -22.2635   22.9852 C   0  0  0  0  0  0  0  0  0  0  0  0
   -9.1461  -23.4453   23.6721 C   0  0  0  0  0  0  0  0  0  0  0  0
   -8.4400  -24.6527   23.4618 C   0  0  0  0  0  0  0  0  0  0  0  0
   -8.6457  -26.1983   24.1986 S   0  0  0  0  0  0  0  0  0  0  0  0
   -7.3843  -26.8287   23.2274 C   0  0  0  0  0  0  0  0  0  0  0  0
   -6.7984  -25.9767   22.4154 N   0  0  0  0  0  0  0  0  0  0  0  0
   -7.3817  -24.7198   22.5559 C   0  0  0  0  0  0  0  0  0  0  0  0
   -7.0154  -23.5212   21.8831 C   0  0  0  0  0  0  0  0  0  0  0  0
   -7.5873  -19.1978   21.6003 N   0  0  0  0  0  0  0  0  0  0  0  0
   -7.1243  -18.2594   20.4418 C   0  0  0  0  0  0  0  0  0  0  0  0
   -7.1100  -16.7339   20.7264 C   0  0  0  0  0  0  0  0  0  0  0  0
   -6.2575  -16.4164   21.8970 N   0  0  0  0  0  0  0  0  0  0  0  0
   -5.8186  -15.0864   21.9906 C   0  0  0  0  0  0  0  0  0  0  0  0
   -6.2722  -13.9980   21.3863 N   0  0  0  0  0  0  0  0  0  0  0  0
   -5.4268  -12.9475   21.7158 C   0  0  0  0  0  0  0  0  0  0  0  0
   -4.3967  -13.3934   22.5004 C   0  0  0  0  0  0  0  0  0  0  0  0
   -4.6507  -14.7390   22.6529 N   0  0  0  0  0  0  0  0  0  0  0  0
   -6.8661  -17.1026   23.0751 C   0  0  0  0  0  0  0  0  0  0  0  0
   -7.0320  -18.6868   22.9157 C   0  0  0  0  0  0  0  0  0  0  0  0
   -9.3310  -21.3478   23.1404 H   0  0  0  0  0  0  0  0  0  0  0  0
   -9.9817  -23.4194   24.3681 H   0  0  0  0  0  0  0  0  0  0  0  0
   -7.0865  -27.8646   23.2983 H   0  0  0  0  0  0  0  0  0  0  0  0
   -6.1990  -23.5746   21.1669 H   0  0  0  0  0  0  0  0  0  0  0  0
   -6.1098  -18.5495   20.1434 H   0  0  0  0  0  0  0  0  0  0  0  0
   -7.7967  -18.4363   19.5944 H   0  0  0  0  0  0  0  0  0  0  0  0
   -6.7279  -16.2298   19.8307 H   0  0  0  0  0  0  0  0  0  0  0  0
   -8.1339  -16.3772   20.8964 H   0  0  0  0  0  0  0  0  0  0  0  0
   -5.6070  -11.9497   21.3397 H   0  0  0  0  0  0  0  0  0  0  0  0
   -3.5204  -12.9250   22.9208 H   0  0  0  0  0  0  0  0  0  0  0  0
   -3.9968  -15.4077   23.0276 H   0  0  0  0  0  0  0  0  0  0  0  0
   -6.2781  -16.9060   23.9777 H   0  0  0  0  0  0  0  0  0  0  0  0
   -7.8626  -16.6761   23.2525 H   0  0  0  0  0  0  0  0  0  0  0  0
   -6.0876  -19.1734   23.1280 H   0  0  0  0  0  0  0  0  0  0  0  0
   -7.7230  -19.0194   23.7000 H   0  0  0  0  0  0  0  0  0  0  0  0
  1  2  2  0
  2  3  2  0
  2  4  1  0
  4  5  2  0
  5  6  1  0
  6  7  2  0
  7  8  1  0
  8  9  1  0
  9 10  2  0
 10 11  1  0
 11 12  2  0
  2 13  1  0
 13 14  1  0
 14 15  1  0
 15 16  1  0
 16 17  1  0
 17 18  2  0
 18 19  1  0
 19 20  2  0
 20 21  1  0
 16 22  1  0
 22 23  1  0
 12  4  1  0
 23 13  1  0
 11  7  1  0
 21 17  1  0
  5 24  1  0
  6 25  1  0
  9 26  1  0
 12 27  1  0
 14 28  1  0
 14 29  1  0
 15 30  1  0
 15 31  1  0
 19 32  1  0
 20 33  1  0
 21 34  1  0
 22 35  1  0
 22 36  1  0
 23 37  1  0
 23 38  1  0
M  END
>  <Energy>  (1294) 
37.572228801937648

>  <compound_id>  (1294) 
32761

>  <target_id>  (1294) 
1

>  <reference_id>  (1294) 
68

>  <inspiration_ids>  (1294) 
[68, 80]

>  <energy_score>  (1294) 
-51.46074484340613

>  <distance_score>  (1294) 
16.488051762905645

>  <path>  (1294) 
/opt/xchem-fragalysis-2/maxwin/BulkDock/SCRATCH/511021/C32761-P68/C32761-P68.minimised.mol

>  <scratch_subdir>  (1294) 
/opt/xchem-fragalysis-2/maxwin/BulkDock/SCRATCH/511021/C32761-P68

>  <fragmenstein_runtime>  (1294) 
21.394062757492065

>  <fragmenstein_outcome>  (1294) 
too moved

>  <fragmenstein_mode>  (1294) 
expansion

>  <fragmenstein_error>  (1294) 


$$$$
C32761-P80
     RDKit          3D

 38 41  0  0  0  0  0  0  0  0999 V2000
    2.7662  -20.5554   17.9298 O   0  0  0  0  0  0  0  0  0  0  0  0
    3.3232  -20.6588   16.5998 S   0  0  0  0  0  0  0  0  0  0  0  0
    4.7312  -20.9036   16.2972 O   0  0  0  0  0  0  0  0  0  0  0  0
    2.6243  -22.4651   16.2168 C   0  0  0  0  0  0  0  0  0  0  0  0
    1.2991  -22.6741   16.4762 C   0  0  0  0  0  0  0  0  0  0  0  0
    0.6548  -23.8800   16.8887 C   0  0  0  0  0  0  0  0  0  0  0  0
    1.4384  -25.0088   17.0660 C   0  0  0  0  0  0  0  0  0  0  0  0
    0.9736  -26.5915   17.5746 S   0  0  0  0  0  0  0  0  0  0  0  0
    2.6143  -27.0628   17.4967 C   0  0  0  0  0  0  0  0  0  0  0  0
    3.4722  -26.1430   17.0989 N   0  0  0  0  0  0  0  0  0  0  0  0
    2.8150  -24.9328   16.8359 C   0  0  0  0  0  0  0  0  0  0  0  0
    3.4005  -23.6456   16.4267 C   0  0  0  0  0  0  0  0  0  0  0  0
    3.0409  -18.7979   15.8977 N   0  0  0  0  0  0  0  0  0  0  0  0
    4.3018  -18.0069   15.2710 C   0  0  0  0  0  0  0  0  0  0  0  0
    4.8932  -16.4195   16.0559 C   0  0  0  0  0  0  0  0  0  0  0  0
    4.1493  -15.3464   17.4611 N   0  0  0  0  0  0  0  0  0  0  0  0
    4.2988  -14.0738   18.4638 C   0  0  0  0  0  0  0  0  0  0  0  0
    5.3312  -13.6373   19.3254 N   0  0  0  0  0  0  0  0  0  0  0  0
    5.2539  -12.3010   19.7337 C   0  0  0  0  0  0  0  0  0  0  0  0
    4.3806  -11.6460   18.9429 C   0  0  0  0  0  0  0  0  0  0  0  0
    3.7338  -12.6757   18.2540 N   0  0  0  0  0  0  0  0  0  0  0  0
    2.7055  -15.7484   17.3623 C   0  0  0  0  0  0  0  0  0  0  0  0
    2.1885  -17.6167   16.9416 C   0  0  0  0  0  0  0  0  0  0  0  0
    0.7523  -21.7895   16.2274 H   0  0  0  0  0  0  0  0  0  0  0  0
   -0.4114  -23.9138   17.0670 H   0  0  0  0  0  0  0  0  0  0  0  0
    2.9286  -28.0652   17.7554 H   0  0  0  0  0  0  0  0  0  0  0  0
    4.4847  -23.5827   16.3980 H   0  0  0  0  0  0  0  0  0  0  0  0
    5.1455  -18.6796   15.0827 H   0  0  0  0  0  0  0  0  0  0  0  0
    4.0350  -17.7554   14.2382 H   0  0  0  0  0  0  0  0  0  0  0  0
    5.7247  -16.1374   15.4198 H   0  0  0  0  0  0  0  0  0  0  0  0
    3.9586  -16.1901   15.6756 H   0  0  0  0  0  0  0  0  0  0  0  0
    5.9539  -11.8917   20.4432 H   0  0  0  0  0  0  0  0  0  0  0  0
    4.1083  -10.6137   18.7898 H   0  0  0  0  0  0  0  0  0  0  0  0
    3.2275  -12.4872   17.4132 H   0  0  0  0  0  0  0  0  0  0  0  0
    2.2351  -15.1965   16.5860 H   0  0  0  0  0  0  0  0  0  0  0  0
    2.2874  -15.3006   18.2693 H   0  0  0  0  0  0  0  0  0  0  0  0
    1.5018  -17.4464   16.2074 H   0  0  0  0  0  0  0  0  0  0  0  0
    1.6513  -18.1402   17.7370 H   0  0  0  0  0  0  0  0  0  0  0  0
  1  2  2  0
  2  3  2  0
  2  4  1  0
  4  5  2  0
  5  6  1  0
  6  7  2  0
  7  8  1  0
  8  9  1  0
  9 10  2  0
 10 11  1  0
 11 12  2  0
  2 13  1  0
 13 14  1  0
 14 15  1  0
 15 16  1  0
 16 17  1  0
 17 18  2  0
 18 19  1  0
 19 20  2  0
 20 21  1  0
 16 22  1  0
 22 23  1  0
 12  4  1  0
 23 13  1  0
 11  7  1  0
 21 17  1  0
  5 24  1  0
  6 25  1  0
  9 26  1  0
 12 27  1  0
 14 28  1  0
 14 29  1  0
 15 30  1  0
 15 31  1  0
 19 32  1  0
 20 33  1  0
 21 34  1  0
 22 35  1  0
 22 36  1  0
 23 37  1  0
 23 38  1  0
M  END
>  <Energy>  (1295) 
436.96712724439936

>  <compound_id>  (1295) 
32761

>  <target_id>  (1295) 
1

>  <reference_id>  (1295) 
80

>  <inspiration_ids>  (1295) 
[68, 80]

>  <energy_score>  (1295) 
347.9341535990501

>  <distance_score>  (1295) 
16.04728919645644

>  <path>  (1295) 
/opt/xchem-fragalysis-2/maxwin/BulkDock/SCRATCH/511021/C32761-P80/C32761-P80.minimised.mol

>  <scratch_subdir>  (1295) 
/opt/xchem-fragalysis-2/maxwin/BulkDock/SCRATCH/511021/C32761-P80

>  <fragmenstein_runtime>  (1295) 
7.922937870025635

>  <fragmenstein_outcome>  (1295) 
too moved

>  <fragmenstein_mode>  (1295) 
expansion

>  <fragmenstein_error>  (1295) 


$$$$
C32762-P68
     RDKit          3D

 35 38  0  0  0  0  0  0  0  0999 V2000
   -1.6326  -29.4184   20.2428 C   0  0  0  0  0  0  0  0  0  0  0  0
   -2.5780  -29.3248   19.2290 C   0  0  0  0  0  0  0  0  0  0  0  0
   -2.3152  -28.5594   18.0882 C   0  0  0  0  0  0  0  0  0  0  0  0
   -1.0819  -27.8712   17.9948 C   0  0  0  0  0  0  0  0  0  0  0  0
   -0.4848  -26.8554   16.7344 S   0  0  0  0  0  0  0  0  0  0  0  0
    0.9952  -26.4799   17.6109 C   0  0  0  0  0  0  0  0  0  0  0  0
    1.9354  -25.5266   17.1559 N   0  0  0  0  0  0  0  0  0  0  0  0
    2.0373  -25.0565   15.7561 C   0  0  0  0  0  0  0  0  0  0  0  0
    2.6409  -23.6010   15.6424 C   0  0  0  0  0  0  0  0  0  0  0  0
    4.0042  -23.4165   16.2310 N   0  0  0  0  0  0  0  0  0  0  0  0
    4.4756  -22.0954   16.0636 C   0  0  0  0  0  0  0  0  0  0  0  0
    3.8132  -20.9603   15.9369 N   0  0  0  0  0  0  0  0  0  0  0  0
    4.7176  -19.9732   15.5982 C   0  0  0  0  0  0  0  0  0  0  0  0
    5.9831  -20.5010   15.5277 C   0  0  0  0  0  0  0  0  0  0  0  0
    5.8162  -21.8348   15.8352 N   0  0  0  0  0  0  0  0  0  0  0  0
    3.8647  -23.8867   17.6594 C   0  0  0  0  0  0  0  0  0  0  0  0
    3.2496  -25.3578   17.8226 C   0  0  0  0  0  0  0  0  0  0  0  0
    1.0472  -27.1692   18.7484 N   0  0  0  0  0  0  0  0  0  0  0  0
   -0.1196  -27.9326   18.9962 C   0  0  0  0  0  0  0  0  0  0  0  0
   -0.4103  -28.7308   20.1356 C   0  0  0  0  0  0  0  0  0  0  0  0
   -1.8281  -30.0351   21.1167 H   0  0  0  0  0  0  0  0  0  0  0  0
   -3.5196  -29.8597   19.3122 H   0  0  0  0  0  0  0  0  0  0  0  0
   -3.0459  -28.4908   17.2883 H   0  0  0  0  0  0  0  0  0  0  0  0
    1.0591  -25.0492   15.2715 H   0  0  0  0  0  0  0  0  0  0  0  0
    2.6750  -25.7505   15.1943 H   0  0  0  0  0  0  0  0  0  0  0  0
    1.9725  -22.9198   16.1824 H   0  0  0  0  0  0  0  0  0  0  0  0
    2.6768  -23.3283   14.5807 H   0  0  0  0  0  0  0  0  0  0  0  0
    4.3821  -18.9604   15.4117 H   0  0  0  0  0  0  0  0  0  0  0  0
    6.9425  -20.0837   15.2634 H   0  0  0  0  0  0  0  0  0  0  0  0
    6.5129  -22.5605   15.7937 H   0  0  0  0  0  0  0  0  0  0  0  0
    3.2142  -23.1690   18.1719 H   0  0  0  0  0  0  0  0  0  0  0  0
    4.8565  -23.8803   18.1238 H   0  0  0  0  0  0  0  0  0  0  0  0
    3.1715  -25.6240   18.8777 H   0  0  0  0  0  0  0  0  0  0  0  0
    3.9562  -26.0680   17.3736 H   0  0  0  0  0  0  0  0  0  0  0  0
    0.3281  -28.7987   20.9285 H   0  0  0  0  0  0  0  0  0  0  0  0
  1  2  2  0
  2  3  1  0
  3  4  2  0
  4  5  1  0
  5  6  1  0
  6  7  1  0
  7  8  1  0
  8  9  1  0
  9 10  1  0
 10 11  1  0
 11 12  2  0
 12 13  1  0
 13 14  2  0
 14 15  1  0
 10 16  1  0
 16 17  1  0
  6 18  2  0
 18 19  1  0
 19 20  2  0
 20  1  1  0
 19  4  1  0
 17  7  1  0
 15 11  1  0
  1 21  1  0
  2 22  1  0
  3 23  1  0
  8 24  1  0
  8 25  1  0
  9 26  1  0
  9 27  1  0
 13 28  1  0
 14 29  1  0
 15 30  1  0
 16 31  1  0
 16 32  1  0
 17 33  1  0
 17 34  1  0
 20 35  1  0
M  END
>  <Energy>  (1296) 
56.331606874747088

>  <compound_id>  (1296) 
32762

>  <target_id>  (1296) 
1

>  <reference_id>  (1296) 
68

>  <inspiration_ids>  (1296) 
[68, 80]

>  <energy_score>  (1296) 
-50.59917156232541

>  <distance_score>  (1296) 
15.742895849002785

>  <path>  (1296) 
/opt/xchem-fragalysis-2/maxwin/BulkDock/SCRATCH/511021/C32762-P68/C32762-P68.minimised.mol

>  <scratch_subdir>  (1296) 
/opt/xchem-fragalysis-2/maxwin/BulkDock/SCRATCH/511021/C32762-P68

>  <fragmenstein_runtime>  (1296) 
13.86087417602539

>  <fragmenstein_outcome>  (1296) 
too moved

>  <fragmenstein_mode>  (1296) 
expansion

>  <fragmenstein_error>  (1296) 


$$$$
C32762-P80
     RDKit          3D

 35 38  0  0  0  0  0  0  0  0999 V2000
    1.4548  -24.6828   16.5859 C   0  0  0  0  0  0  0  0  0  0  0  0
    2.1253  -24.9101   15.4051 C   0  0  0  0  0  0  0  0  0  0  0  0
    2.7575  -23.8391   14.7410 C   0  0  0  0  0  0  0  0  0  0  0  0
    2.7139  -22.5157   15.2742 C   0  0  0  0  0  0  0  0  0  0  0  0
    3.3748  -21.0357   14.6576 S   0  0  0  0  0  0  0  0  0  0  0  0
    2.7534  -20.0308   15.9823 C   0  0  0  0  0  0  0  0  0  0  0  0
    3.0165  -18.5926   16.0457 N   0  0  0  0  0  0  0  0  0  0  0  0
    4.1597  -17.8988   15.3144 C   0  0  0  0  0  0  0  0  0  0  0  0
    4.7229  -16.3026   16.0582 C   0  0  0  0  0  0  0  0  0  0  0  0
    4.1343  -15.3406   17.5858 N   0  0  0  0  0  0  0  0  0  0  0  0
    4.2795  -14.0110   18.4896 C   0  0  0  0  0  0  0  0  0  0  0  0
    5.3399  -13.5693   19.3304 N   0  0  0  0  0  0  0  0  0  0  0  0
    5.3909  -12.1870   19.5302 C   0  0  0  0  0  0  0  0  0  0  0  0
    4.4904  -11.5837   18.6999 C   0  0  0  0  0  0  0  0  0  0  0  0
    3.6943  -12.6453   18.2299 N   0  0  0  0  0  0  0  0  0  0  0  0
    2.7002  -15.7111   17.4885 C   0  0  0  0  0  0  0  0  0  0  0  0
    2.1627  -17.5537   16.9821 C   0  0  0  0  0  0  0  0  0  0  0  0
    2.1267  -20.8380   16.8458 N   0  0  0  0  0  0  0  0  0  0  0  0
    2.0621  -22.2381   16.4599 C   0  0  0  0  0  0  0  0  0  0  0  0
    1.4263  -23.3733   17.0869 C   0  0  0  0  0  0  0  0  0  0  0  0
    0.9835  -25.4907   17.1358 H   0  0  0  0  0  0  0  0  0  0  0  0
    2.1764  -25.9104   14.9839 H   0  0  0  0  0  0  0  0  0  0  0  0
    3.2776  -24.0177   13.8027 H   0  0  0  0  0  0  0  0  0  0  0  0
    3.9214  -17.7110   14.2632 H   0  0  0  0  0  0  0  0  0  0  0  0
    5.0304  -18.5461   15.1657 H   0  0  0  0  0  0  0  0  0  0  0  0
    5.6098  -16.1623   15.5459 H   0  0  0  0  0  0  0  0  0  0  0  0
    3.7629  -16.0859   15.7317 H   0  0  0  0  0  0  0  0  0  0  0  0
    6.1405  -11.7453   20.1702 H   0  0  0  0  0  0  0  0  0  0  0  0
    4.2529  -10.5608   18.4473 H   0  0  0  0  0  0  0  0  0  0  0  0
    2.9886  -12.5530   17.5191 H   0  0  0  0  0  0  0  0  0  0  0  0
    2.2310  -15.2392   18.3573 H   0  0  0  0  0  0  0  0  0  0  0  0
    2.2610  -15.1589   16.6830 H   0  0  0  0  0  0  0  0  0  0  0  0
    1.6195  -18.0823   17.7714 H   0  0  0  0  0  0  0  0  0  0  0  0
    1.5003  -17.3323   16.2457 H   0  0  0  0  0  0  0  0  0  0  0  0
    0.9666  -23.2592   18.0516 H   0  0  0  0  0  0  0  0  0  0  0  0
  1  2  2  0
  2  3  1  0
  3  4  2  0
  4  5  1  0
  5  6  1  0
  6  7  1  0
  7  8  1  0
  8  9  1  0
  9 10  1  0
 10 11  1  0
 11 12  2  0
 12 13  1  0
 13 14  2  0
 14 15  1  0
 10 16  1  0
 16 17  1  0
  6 18  2  0
 18 19  1  0
 19 20  2  0
 20  1  1  0
 19  4  1  0
 17  7  1  0
 15 11  1  0
  1 21  1  0
  2 22  1  0
  3 23  1  0
  8 24  1  0
  8 25  1  0
  9 26  1  0
  9 27  1  0
 13 28  1  0
 14 29  1  0
 15 30  1  0
 16 31  1  0
 16 32  1  0
 17 33  1  0
 17 34  1  0
 20 35  1  0
M  END
>  <Energy>  (1297) 
358.21515752278918

>  <compound_id>  (1297) 
32762

>  <target_id>  (1297) 
1

>  <reference_id>  (1297) 
80

>  <inspiration_ids>  (1297) 
[68, 80]

>  <energy_score>  (1297) 
251.28437908571834

>  <distance_score>  (1297) 
17.206008239296654

>  <path>  (1297) 
/opt/xchem-fragalysis-2/maxwin/BulkDock/SCRATCH/511021/C32762-P80/C32762-P80.minimised.mol

>  <scratch_subdir>  (1297) 
/opt/xchem-fragalysis-2/maxwin/BulkDock/SCRATCH/511021/C32762-P80

>  <fragmenstein_runtime>  (1297) 
7.472255229949951

>  <fragmenstein_outcome>  (1297) 
too moved

>  <fragmenstein_mode>  (1297) 
expansion

>  <fragmenstein_error>  (1297) 


$$$$
C32763-P68
     RDKit          3D

 43 46  0  0  0  0  0  0  0  0999 V2000
    0.9484  -25.7059   16.5955 O   0  0  0  0  0  0  0  0  0  0  0  0
    1.0229  -24.9341   17.5192 C   0  0  0  0  0  0  0  0  0  0  0  0
    0.0150  -25.1297   18.7361 C   0  0  0  0  0  0  0  0  0  0  0  0
   -1.1360  -26.2193   18.5660 C   0  0  0  0  0  0  0  0  0  0  0  0
   -1.3920  -27.2258   19.7030 C   0  0  0  0  0  0  0  0  0  0  0  0
   -2.2716  -26.9557   20.7605 C   0  0  0  0  0  0  0  0  0  0  0  0
   -2.4691  -27.8771   21.8122 C   0  0  0  0  0  0  0  0  0  0  0  0
   -1.7760  -29.1069   21.8231 C   0  0  0  0  0  0  0  0  0  0  0  0
   -1.8155  -30.0728   22.8232 N   0  0  0  0  0  0  0  0  0  0  0  0
   -1.0268  -31.0704   22.4875 C   0  0  0  0  0  0  0  0  0  0  0  0
   -0.1958  -30.9257   20.9989 S   0  0  0  0  0  0  0  0  0  0  0  0
   -0.9371  -29.3906   20.7451 C   0  0  0  0  0  0  0  0  0  0  0  0
   -0.7496  -28.4796   19.6806 C   0  0  0  0  0  0  0  0  0  0  0  0
    1.9821  -23.8525   17.7812 N   0  0  0  0  0  0  0  0  0  0  0  0
    3.2749  -23.4328   17.0135 C   0  0  0  0  0  0  0  0  0  0  0  0
    3.6160  -22.3720   15.8743 C   0  0  0  0  0  0  0  0  0  0  0  0
    3.2104  -21.0363   16.2912 N   0  0  0  0  0  0  0  0  0  0  0  0
    3.9314  -19.8932   15.9977 C   0  0  0  0  0  0  0  0  0  0  0  0
    5.1859  -19.7515   15.5894 N   0  0  0  0  0  0  0  0  0  0  0  0
    5.4362  -18.3922   15.5037 C   0  0  0  0  0  0  0  0  0  0  0  0
    4.3237  -17.6858   15.8723 C   0  0  0  0  0  0  0  0  0  0  0  0
    3.3551  -18.6379   16.0594 N   0  0  0  0  0  0  0  0  0  0  0  0
    2.1997  -21.1441   17.3419 C   0  0  0  0  0  0  0  0  0  0  0  0
    1.4668  -22.5394   17.1916 C   0  0  0  0  0  0  0  0  0  0  0  0
   -0.4541  -24.1626   18.9479 H   0  0  0  0  0  0  0  0  0  0  0  0
    0.6319  -25.3990   19.6021 H   0  0  0  0  0  0  0  0  0  0  0  0
   -2.0752  -25.6803   18.3821 H   0  0  0  0  0  0  0  0  0  0  0  0
   -0.9636  -26.7965   17.6496 H   0  0  0  0  0  0  0  0  0  0  0  0
   -2.8040  -26.0071   20.7927 H   0  0  0  0  0  0  0  0  0  0  0  0
   -3.1315  -27.6328   22.6369 H   0  0  0  0  0  0  0  0  0  0  0  0
   -0.9054  -31.9467   23.1088 H   0  0  0  0  0  0  0  0  0  0  0  0
   -0.0733  -28.7349   18.8673 H   0  0  0  0  0  0  0  0  0  0  0  0
    3.9731  -23.2247   17.8384 H   0  0  0  0  0  0  0  0  0  0  0  0
    3.6148  -24.3937   16.6002 H   0  0  0  0  0  0  0  0  0  0  0  0
    4.6938  -22.4175   15.6776 H   0  0  0  0  0  0  0  0  0  0  0  0
    3.0971  -22.6443   14.9475 H   0  0  0  0  0  0  0  0  0  0  0  0
    6.4061  -18.0125   15.2111 H   0  0  0  0  0  0  0  0  0  0  0  0
    4.1077  -16.6404   15.9887 H   0  0  0  0  0  0  0  0  0  0  0  0
    2.3616  -18.4762   16.1473 H   0  0  0  0  0  0  0  0  0  0  0  0
    2.6418  -21.0997   18.3339 H   0  0  0  0  0  0  0  0  0  0  0  0
    1.4776  -20.3301   17.2664 H   0  0  0  0  0  0  0  0  0  0  0  0
    1.1377  -22.7204   16.1558 H   0  0  0  0  0  0  0  0  0  0  0  0
    0.5260  -22.4069   17.7389 H   0  0  0  0  0  0  0  0  0  0  0  0
  1  2  2  0
  2  3  1  0
  3  4  1  0
  4  5  1  0
  5  6  2  0
  6  7  1  0
  7  8  2  0
  8  9  1  0
  9 10  2  0
 10 11  1  0
 11 12  1  0
 12 13  2  0
  2 14  1  0
 14 15  1  0
 15 16  1  0
 16 17  1  0
 17 18  1  0
 18 19  2  0
 19 20  1  0
 20 21  2  0
 21 22  1  0
 17 23  1  0
 23 24  1  0
 13  5  1  0
 24 14  1  0
 12  8  1  0
 22 18  1  0
  3 25  1  0
  3 26  1  0
  4 27  1  0
  4 28  1  0
  6 29  1  0
  7 30  1  0
 10 31  1  0
 13 32  1  0
 15 33  1  0
 15 34  1  0
 16 35  1  0
 16 36  1  0
 20 37  1  0
 21 38  1  0
 22 39  1  0
 23 40  1  0
 23 41  1  0
 24 42  1  0
 24 43  1  0
M  END
>  <Energy>  (1298) 
142.07312659207986

>  <compound_id>  (1298) 
32763

>  <target_id>  (1298) 
1

>  <reference_id>  (1298) 
68

>  <inspiration_ids>  (1298) 
[68, 80]

>  <energy_score>  (1298) 
10.317599933138354

>  <distance_score>  (1298) 
14.182885123311664

>  <path>  (1298) 
/opt/xchem-fragalysis-2/maxwin/BulkDock/SCRATCH/511021/C32763-P68/C32763-P68.minimised.mol

>  <scratch_subdir>  (1298) 
/opt/xchem-fragalysis-2/maxwin/BulkDock/SCRATCH/511021/C32763-P68

>  <fragmenstein_runtime>  (1298) 
32.895042181015015

>  <fragmenstein_outcome>  (1298) 
too moved

>  <fragmenstein_mode>  (1298) 
expansion

>  <fragmenstein_error>  (1298) 


$$$$
C32763-P80
     RDKit          3D

 43 46  0  0  0  0  0  0  0  0999 V2000
   -1.1985  -17.9327   18.0120 O   0  0  0  0  0  0  0  0  0  0  0  0
   -0.3008  -17.8160   18.8415 C   0  0  0  0  0  0  0  0  0  0  0  0
   -0.9832  -18.1764   20.5190 C   0  0  0  0  0  0  0  0  0  0  0  0
   -2.7620  -18.8402   20.5794 C   0  0  0  0  0  0  0  0  0  0  0  0
   -3.5665  -20.1919   21.2489 C   0  0  0  0  0  0  0  0  0  0  0  0
   -3.4754  -20.5427   22.6137 C   0  0  0  0  0  0  0  0  0  0  0  0
   -3.8762  -21.8184   23.1213 C   0  0  0  0  0  0  0  0  0  0  0  0
   -4.3718  -22.8234   22.2652 C   0  0  0  0  0  0  0  0  0  0  0  0
   -4.6482  -24.1481   22.6015 N   0  0  0  0  0  0  0  0  0  0  0  0
   -5.0111  -24.8016   21.5222 C   0  0  0  0  0  0  0  0  0  0  0  0
   -5.1802  -23.8648   20.0938 S   0  0  0  0  0  0  0  0  0  0  0  0
   -4.5820  -22.4646   20.9324 C   0  0  0  0  0  0  0  0  0  0  0  0
   -4.2703  -21.1437   20.4450 C   0  0  0  0  0  0  0  0  0  0  0  0
    1.4579  -17.1208   18.4707 N   0  0  0  0  0  0  0  0  0  0  0  0
    2.2313  -16.3107   16.7923 C   0  0  0  0  0  0  0  0  0  0  0  0
    1.6287  -14.2811   16.8533 C   0  0  0  0  0  0  0  0  0  0  0  0
    2.7117  -12.9448   17.9054 N   0  0  0  0  0  0  0  0  0  0  0  0
    3.0338  -11.2258   17.3305 C   0  0  0  0  0  0  0  0  0  0  0  0
    2.3308  -10.1313   18.2005 N   0  0  0  0  0  0  0  0  0  0  0  0
    1.7766   -8.8573   18.0897 C   0  0  0  0  0  0  0  0  0  0  0  0
    2.6979   -8.4311   17.3167 C   0  0  0  0  0  0  0  0  0  0  0  0
    3.5700   -9.8555   17.2837 N   0  0  0  0  0  0  0  0  0  0  0  0
    3.5106  -14.1671   18.3724 C   0  0  0  0  0  0  0  0  0  0  0  0
    2.1540  -15.2471   18.5889 C   0  0  0  0  0  0  0  0  0  0  0  0
   -0.3477  -18.1492   21.3951 H   0  0  0  0  0  0  0  0  0  0  0  0
   -1.2896  -17.1195   20.5529 H   0  0  0  0  0  0  0  0  0  0  0  0
   -3.3369  -18.0065   20.9990 H   0  0  0  0  0  0  0  0  0  0  0  0
   -3.0503  -18.8588   19.5207 H   0  0  0  0  0  0  0  0  0  0  0  0
   -2.9856  -19.8738   23.3138 H   0  0  0  0  0  0  0  0  0  0  0  0
   -3.7169  -22.0545   24.1699 H   0  0  0  0  0  0  0  0  0  0  0  0
   -5.2024  -25.8653   21.5314 H   0  0  0  0  0  0  0  0  0  0  0  0
   -4.4872  -20.9199   19.4070 H   0  0  0  0  0  0  0  0  0  0  0  0
    1.9113  -17.1634   16.2342 H   0  0  0  0  0  0  0  0  0  0  0  0
    3.1822  -15.8904   16.5214 H   0  0  0  0  0  0  0  0  0  0  0  0
    0.6530  -13.9538   17.2230 H   0  0  0  0  0  0  0  0  0  0  0  0
    1.4787  -13.6983   16.0037 H   0  0  0  0  0  0  0  0  0  0  0  0
    0.9404   -8.4242   18.6162 H   0  0  0  0  0  0  0  0  0  0  0  0
    2.9693   -7.5113   16.8070 H   0  0  0  0  0  0  0  0  0  0  0  0
    4.1587   -9.7265   18.0742 H   0  0  0  0  0  0  0  0  0  0  0  0
    4.2164  -14.7150   17.7653 H   0  0  0  0  0  0  0  0  0  0  0  0
    4.0630  -13.6330   19.1402 H   0  0  0  0  0  0  0  0  0  0  0  0
    1.3310  -14.7374   18.3785 H   0  0  0  0  0  0  0  0  0  0  0  0
    2.2203  -15.0485   19.6997 H   0  0  0  0  0  0  0  0  0  0  0  0
  1  2  2  0
  2  3  1  0
  3  4  1  0
  4  5  1  0
  5  6  2  0
  6  7  1  0
  7  8  2  0
  8  9  1  0
  9 10  2  0
 10 11  1  0
 11 12  1  0
 12 13  2  0
  2 14  1  0
 14 15  1  0
 15 16  1  0
 16 17  1  0
 17 18  1  0
 18 19  2  0
 19 20  1  0
 20 21  2  0
 21 22  1  0
 17 23  1  0
 23 24  1  0
 13  5  1  0
 24 14  1  0
 12  8  1  0
 22 18  1  0
  3 25  1  0
  3 26  1  0
  4 27  1  0
  4 28  1  0
  6 29  1  0
  7 30  1  0
 10 31  1  0
 13 32  1  0
 15 33  1  0
 15 34  1  0
 16 35  1  0
 16 36  1  0
 20 37  1  0
 21 38  1  0
 22 39  1  0
 23 40  1  0
 23 41  1  0
 24 42  1  0
 24 43  1  0
M  END
>  <Energy>  (1299) 
1194.1232006785142

>  <compound_id>  (1299) 
32763

>  <target_id>  (1299) 
1

>  <reference_id>  (1299) 
80

>  <inspiration_ids>  (1299) 
[68, 80]

>  <energy_score>  (1299) 
1062.367674019596

>  <distance_score>  (1299) 
14.679095664319265

>  <path>  (1299) 
/opt/xchem-fragalysis-2/maxwin/BulkDock/SCRATCH/511021/C32763-P80/C32763-P80.minimised.mol

>  <scratch_subdir>  (1299) 
/opt/xchem-fragalysis-2/maxwin/BulkDock/SCRATCH/511021/C32763-P80

>  <fragmenstein_runtime>  (1299) 
16.34511423110962

>  <fragmenstein_outcome>  (1299) 
too moved

>  <fragmenstein_mode>  (1299) 
expansion

>  <fragmenstein_error>  (1299) 


$$$$
C32764-P68
     RDKit          3D

 35 37  0  0  0  0  0  0  0  0999 V2000
    3.3961  -24.4225   18.5396 O   0  0  0  0  0  0  0  0  0  0  0  0
    2.3421  -23.9873   18.3445 C   0  0  0  0  0  0  0  0  0  0  0  0
    1.1913  -24.9564   18.7557 C   0  0  0  0  0  0  0  0  0  0  0  0
   -0.0284  -24.6251   19.3553 C   0  0  0  0  0  0  0  0  0  0  0  0
   -0.9504  -25.6344   19.7896 C   0  0  0  0  0  0  0  0  0  0  0  0
   -0.6741  -27.0135   19.6024 C   0  0  0  0  0  0  0  0  0  0  0  0
   -1.4565  -28.1073   19.9666 N   0  0  0  0  0  0  0  0  0  0  0  0
   -0.8932  -29.2076   19.5154 C   0  0  0  0  0  0  0  0  0  0  0  0
    0.6383  -29.0482   18.7881 S   0  0  0  0  0  0  0  0  0  0  0  0
    0.5253  -27.3365   18.9686 C   0  0  0  0  0  0  0  0  0  0  0  0
    1.4485  -26.3404   18.5660 C   0  0  0  0  0  0  0  0  0  0  0  0
    1.8450  -22.6378   17.6440 N   0  0  0  0  0  0  0  0  0  0  0  0
    2.4224  -21.5522   17.1739 C   0  0  0  0  0  0  0  0  0  0  0  0
    0.9373  -21.1769   16.1483 C   0  0  0  0  0  0  0  0  0  0  0  0
    1.2024  -20.0455   15.3277 O   0  0  0  0  0  0  0  0  0  0  0  0
    3.0786  -21.4072   16.7104 C   0  0  0  0  0  0  0  0  0  0  0  0
    3.8696  -19.8259   17.0062 C   0  0  0  0  0  0  0  0  0  0  0  0
    5.0636  -19.6281   17.5425 N   0  0  0  0  0  0  0  0  0  0  0  0
    5.3655  -18.2989   17.3270 C   0  0  0  0  0  0  0  0  0  0  0  0
    4.3508  -17.6751   16.6462 C   0  0  0  0  0  0  0  0  0  0  0  0
    3.4218  -18.6558   16.4115 N   0  0  0  0  0  0  0  0  0  0  0  0
   -0.2713  -23.5788   19.5279 H   0  0  0  0  0  0  0  0  0  0  0  0
   -1.8825  -25.3436   20.2672 H   0  0  0  0  0  0  0  0  0  0  0  0
   -1.3568  -30.1786   19.5561 H   0  0  0  0  0  0  0  0  0  0  0  0
    2.3857  -26.6466   18.1020 H   0  0  0  0  0  0  0  0  0  0  0  0
    1.8049  -20.5999   17.7280 H   0  0  0  0  0  0  0  0  0  0  0  0
    2.6978  -21.3888   18.4208 H   0  0  0  0  0  0  0  0  0  0  0  0
    0.0638  -21.0123   16.7959 H   0  0  0  0  0  0  0  0  0  0  0  0
    0.7433  -22.0434   15.5015 H   0  0  0  0  0  0  0  0  0  0  0  0
    0.4789  -19.3927   15.4495 H   0  0  0  0  0  0  0  0  0  0  0  0
    4.1304  -22.0367   16.8516 H   0  0  0  0  0  0  0  0  0  0  0  0
    3.1299  -21.5891   15.5054 H   0  0  0  0  0  0  0  0  0  0  0  0
    6.2891  -17.8818   17.6989 H   0  0  0  0  0  0  0  0  0  0  0  0
    4.1928  -16.6587   16.3233 H   0  0  0  0  0  0  0  0  0  0  0  0
    2.5572  -18.5623   15.8849 H   0  0  0  0  0  0  0  0  0  0  0  0
  1  2  2  0
  2  3  1  0
  3  4  2  0
  4  5  1  0
  5  6  2  0
  6  7  1  0
  7  8  2  0
  8  9  1  0
  9 10  1  0
 10 11  2  0
  2 12  1  0
 12 13  1  0
 13 14  1  0
 14 15  1  0
 12 16  1  0
 16 17  1  0
 17 18  2  0
 18 19  1  0
 19 20  2  0
 20 21  1  0
 11  3  1  0
 21 17  1  0
 10  6  1  0
  4 22  1  0
  5 23  1  0
  8 24  1  0
 11 25  1  0
 13 26  1  0
 13 27  1  0
 14 28  1  0
 14 29  1  0
 15 30  1  0
 16 31  1  0
 16 32  1  0
 19 33  1  0
 20 34  1  0
 21 35  1  0
M  END
>  <Energy>  (1300) 
835.45549768192313

>  <compound_id>  (1300) 
32764

>  <target_id>  (1300) 
1

>  <reference_id>  (1300) 
68

>  <inspiration_ids>  (1300) 
[68, 80]

>  <energy_score>  (1300) 
687.1109086824436

>  <distance_score>  (1300) 
16.018758799897604

>  <path>  (1300) 
/opt/xchem-fragalysis-2/maxwin/BulkDock/SCRATCH/511021/C32764-P68/C32764-P68.minimised.mol

>  <scratch_subdir>  (1300) 
/opt/xchem-fragalysis-2/maxwin/BulkDock/SCRATCH/511021/C32764-P68

>  <fragmenstein_runtime>  (1300) 
34.73004221916199

>  <fragmenstein_outcome>  (1300) 
too moved

>  <fragmenstein_mode>  (1300) 
expansion

>  <fragmenstein_error>  (1300) 


$$$$
C32764-P80
     RDKit          3D

 35 37  0  0  0  0  0  0  0  0999 V2000
   -1.4225  -21.7981   21.2188 O   0  0  0  0  0  0  0  0  0  0  0  0
   -0.6622  -22.6313   21.4670 C   0  0  0  0  0  0  0  0  0  0  0  0
   -1.2117  -23.9918   21.9282 C   0  0  0  0  0  0  0  0  0  0  0  0
   -2.5661  -24.0779   22.3089 C   0  0  0  0  0  0  0  0  0  0  0  0
   -3.0525  -25.1360   23.0998 C   0  0  0  0  0  0  0  0  0  0  0  0
   -2.1476  -26.1089   23.5596 C   0  0  0  0  0  0  0  0  0  0  0  0
   -2.3867  -27.0551   24.5331 N   0  0  0  0  0  0  0  0  0  0  0  0
   -1.2611  -27.6605   24.8274 C   0  0  0  0  0  0  0  0  0  0  0  0
    0.0351  -27.4088   23.7466 S   0  0  0  0  0  0  0  0  0  0  0  0
   -0.8445  -26.0951   23.0584 C   0  0  0  0  0  0  0  0  0  0  0  0
   -0.3720  -25.0806   22.2013 C   0  0  0  0  0  0  0  0  0  0  0  0
    0.9561  -22.6513   21.5351 N   0  0  0  0  0  0  0  0  0  0  0  0
    2.3887  -21.3149   21.4152 C   0  0  0  0  0  0  0  0  0  0  0  0
    3.0660  -21.5620   23.0091 C   0  0  0  0  0  0  0  0  0  0  0  0
    3.3295  -22.9501   23.1759 O   0  0  0  0  0  0  0  0  0  0  0  0
    1.7094  -21.6092   21.1437 C   0  0  0  0  0  0  0  0  0  0  0  0
    1.1834  -20.6633   19.6216 C   0  0  0  0  0  0  0  0  0  0  0  0
    0.1470  -19.8615   19.5447 N   0  0  0  0  0  0  0  0  0  0  0  0
    0.1454  -19.4179   18.2620 C   0  0  0  0  0  0  0  0  0  0  0  0
    1.3048  -19.7568   17.6060 C   0  0  0  0  0  0  0  0  0  0  0  0
    1.9797  -20.5424   18.4999 N   0  0  0  0  0  0  0  0  0  0  0  0
   -3.2413  -23.2552   22.0715 H   0  0  0  0  0  0  0  0  0  0  0  0
   -4.0817  -25.1313   23.4440 H   0  0  0  0  0  0  0  0  0  0  0  0
   -1.1660  -28.3267   25.6716 H   0  0  0  0  0  0  0  0  0  0  0  0
    0.6705  -25.0741   21.9017 H   0  0  0  0  0  0  0  0  0  0  0  0
    2.3721  -20.0658   21.5651 H   0  0  0  0  0  0  0  0  0  0  0  0
    3.4405  -21.6753   20.8419 H   0  0  0  0  0  0  0  0  0  0  0  0
    3.9967  -20.9917   23.0818 H   0  0  0  0  0  0  0  0  0  0  0  0
    2.3437  -21.2288   23.7618 H   0  0  0  0  0  0  0  0  0  0  0  0
    2.4711  -23.4002   23.0387 H   0  0  0  0  0  0  0  0  0  0  0  0
    1.7811  -22.3938   20.1590 H   0  0  0  0  0  0  0  0  0  0  0  0
    0.7102  -20.9212   21.5361 H   0  0  0  0  0  0  0  0  0  0  0  0
   -0.7262  -18.8960   17.9043 H   0  0  0  0  0  0  0  0  0  0  0  0
    1.6750  -19.5583   16.6102 H   0  0  0  0  0  0  0  0  0  0  0  0
    2.8970  -20.9455   18.3782 H   0  0  0  0  0  0  0  0  0  0  0  0
  1  2  2  0
  2  3  1  0
  3  4  2  0
  4  5  1  0
  5  6  2  0
  6  7  1  0
  7  8  2  0
  8  9  1  0
  9 10  1  0
 10 11  2  0
  2 12  1  0
 12 13  1  0
 13 14  1  0
 14 15  1  0
 12 16  1  0
 16 17  1  0
 17 18  2  0
 18 19  1  0
 19 20  2  0
 20 21  1  0
 11  3  1  0
 21 17  1  0
 10  6  1  0
  4 22  1  0
  5 23  1  0
  8 24  1  0
 11 25  1  0
 13 26  1  0
 13 27  1  0
 14 28  1  0
 14 29  1  0
 15 30  1  0
 16 31  1  0
 16 32  1  0
 19 33  1  0
 20 34  1  0
 21 35  1  0
M  END
>  <Energy>  (1301) 
812.62061708011868

>  <compound_id>  (1301) 
32764

>  <target_id>  (1301) 
1

>  <reference_id>  (1301) 
80

>  <inspiration_ids>  (1301) 
[68, 80]

>  <energy_score>  (1301) 
664.2760280806597

>  <distance_score>  (1301) 
16.652479388080906

>  <path>  (1301) 
/opt/xchem-fragalysis-2/maxwin/BulkDock/SCRATCH/511021/C32764-P80/C32764-P80.minimised.mol

>  <scratch_subdir>  (1301) 
/opt/xchem-fragalysis-2/maxwin/BulkDock/SCRATCH/511021/C32764-P80

>  <fragmenstein_runtime>  (1301) 
13.445793151855469

>  <fragmenstein_outcome>  (1301) 
too moved

>  <fragmenstein_mode>  (1301) 
expansion

>  <fragmenstein_error>  (1301) 


$$$$
C59653-P68
     RDKit          3D

 46 49  0  0  0  0  0  0  0  0999 V2000
    2.4451  -26.5153   19.8470 C   0  0  0  0  0  0  0  0  0  0  0  0
    1.6376  -25.2842   19.3974 C   0  0  0  0  0  0  0  0  0  0  0  0
    0.9264  -24.7517   20.5636 N   0  0  0  0  0  0  0  0  0  0  0  0
    0.9164  -22.9322   20.5140 C   0  0  0  0  0  0  0  0  0  0  0  0
    2.3910  -21.7037   20.8112 C   0  0  0  0  0  0  0  0  0  0  0  0
    3.3114  -20.1424   21.3085 N   0  0  0  0  0  0  0  0  0  0  0  0
    5.2447  -19.7162   21.2322 C   0  0  0  0  0  0  0  0  0  0  0  0
    6.1020  -20.5470   20.9450 O   0  0  0  0  0  0  0  0  0  0  0  0
    5.8932  -18.4129   21.3342 C   0  0  0  0  0  0  0  0  0  0  0  0
    6.4046  -17.5235   20.1889 C   0  0  0  0  0  0  0  0  0  0  0  0
    7.5349  -18.4051   20.2386 C   0  0  0  0  0  0  0  0  0  0  0  0
    8.6309  -17.2251   19.4175 C   0  0  0  0  0  0  0  0  0  0  0  0
    8.6908  -17.0885   18.0418 C   0  0  0  0  0  0  0  0  0  0  0  0
    9.3561  -15.9067   17.8066 N   0  0  0  0  0  0  0  0  0  0  0  0
    9.6718  -15.3623   19.0176 C   0  0  0  0  0  0  0  0  0  0  0  0
    9.2374  -16.1191   20.0037 N   0  0  0  0  0  0  0  0  0  0  0  0
   -0.2603  -25.6947   20.7839 C   0  0  0  0  0  0  0  0  0  0  0  0
   -0.9766  -26.6893   20.2223 N   0  0  0  0  0  0  0  0  0  0  0  0
   -2.5534  -26.8081   20.8616 C   0  0  0  0  0  0  0  0  0  0  0  0
   -4.0658  -27.6473   20.7876 C   0  0  0  0  0  0  0  0  0  0  0  0
   -5.5025  -27.1279   21.0254 C   0  0  0  0  0  0  0  0  0  0  0  0
   -5.6372  -25.8857   21.6452 C   0  0  0  0  0  0  0  0  0  0  0  0
   -4.3948  -25.1701   21.9139 C   0  0  0  0  0  0  0  0  0  0  0  0
   -2.7797  -25.6505   21.4929 C   0  0  0  0  0  0  0  0  0  0  0  0
   -0.8815  -26.5043   22.2206 S   0  0  0  0  0  0  0  0  0  0  0  0
    2.8794  -26.4147   20.8419 H   0  0  0  0  0  0  0  0  0  0  0  0
    1.8051  -27.4008   19.9262 H   0  0  0  0  0  0  0  0  0  0  0  0
    3.2588  -26.7262   19.1463 H   0  0  0  0  0  0  0  0  0  0  0  0
    0.9057  -25.5057   18.6389 H   0  0  0  0  0  0  0  0  0  0  0  0
    2.2414  -24.5576   18.8500 H   0  0  0  0  0  0  0  0  0  0  0  0
    0.5608  -22.7015   19.5028 H   0  0  0  0  0  0  0  0  0  0  0  0
    0.2027  -22.6041   21.2654 H   0  0  0  0  0  0  0  0  0  0  0  0
    2.8085  -21.8800   19.8118 H   0  0  0  0  0  0  0  0  0  0  0  0
    1.5889  -20.9649   20.6043 H   0  0  0  0  0  0  0  0  0  0  0  0
    2.8129  -19.3678   21.6410 H   0  0  0  0  0  0  0  0  0  0  0  0
    6.1139  -18.4743   22.3667 H   0  0  0  0  0  0  0  0  0  0  0  0
    5.8740  -16.9087   19.4549 H   0  0  0  0  0  0  0  0  0  0  0  0
    6.7809  -16.5084   20.1782 H   0  0  0  0  0  0  0  0  0  0  0  0
    7.7762  -19.3777   19.8614 H   0  0  0  0  0  0  0  0  0  0  0  0
    8.2763  -17.6769   17.2366 H   0  0  0  0  0  0  0  0  0  0  0  0
    9.5546  -15.5031   16.9014 H   0  0  0  0  0  0  0  0  0  0  0  0
   10.2018  -14.4248   19.1179 H   0  0  0  0  0  0  0  0  0  0  0  0
   -3.9846  -28.6783   20.5084 H   0  0  0  0  0  0  0  0  0  0  0  0
   -6.3674  -27.6815   20.7197 H   0  0  0  0  0  0  0  0  0  0  0  0
   -6.5922  -25.5054   21.9885 H   0  0  0  0  0  0  0  0  0  0  0  0
   -4.5093  -24.5329   22.7831 H   0  0  0  0  0  0  0  0  0  0  0  0
  1  2  1  0
  2  3  1  0
  3  4  1  0
  4  5  1  0
  5  6  1  0
  6  7  1  0
  7  8  2  0
  7  9  1  0
  9 10  1  0
 10 11  1  0
 11 12  1  0
 12 13  2  0
 13 14  1  0
 14 15  1  0
 15 16  2  0
  3 17  1  0
 17 18  2  0
 18 19  1  0
 19 20  2  0
 20 21  1  0
 21 22  2  0
 22 23  1  0
 23 24  2  0
 24 25  1  0
 11  9  1  0
 16 12  1  0
 25 17  1  0
 24 19  1  0
  1 26  1  0
  1 27  1  0
  1 28  1  0
  2 29  1  0
  2 30  1  0
  4 31  1  0
  4 32  1  0
  5 33  1  0
  5 34  1  0
  6 35  1  0
  9 36  1  0
 10 37  1  0
 10 38  1  0
 11 39  1  0
 13 40  1  0
 14 41  1  0
 15 42  1  0
 20 43  1  0
 21 44  1  0
 22 45  1  0
 23 46  1  0
M  END
>  <Energy>  (1302) 
699.28443751265195

>  <compound_id>  (1302) 
59653

>  <target_id>  (1302) 
1

>  <reference_id>  (1302) 
68

>  <inspiration_ids>  (1302) 
[68, 80]

>  <energy_score>  (1302) 
647.79993086509

>  <distance_score>  (1302) 
13.127907634904869

>  <path>  (1302) 
/opt/xchem-fragalysis-2/maxwin/BulkDock/SCRATCH/511021/C59653-P68/C59653-P68.minimised.mol

>  <scratch_subdir>  (1302) 
/opt/xchem-fragalysis-2/maxwin/BulkDock/SCRATCH/511021/C59653-P68

>  <fragmenstein_runtime>  (1302) 
30.245612144470215

>  <fragmenstein_outcome>  (1302) 
too moved

>  <fragmenstein_mode>  (1302) 
expansion

>  <fragmenstein_error>  (1302) 


$$$$
C59653-P80
     RDKit          3D

 46 49  0  0  0  0  0  0  0  0999 V2000
    2.1714  -25.8134   19.3847 C   0  0  0  0  0  0  0  0  0  0  0  0
    0.9933  -24.8182   19.4045 C   0  0  0  0  0  0  0  0  0  0  0  0
    0.6386  -24.3240   18.0623 N   0  0  0  0  0  0  0  0  0  0  0  0
    1.5678  -23.0312   17.4975 C   0  0  0  0  0  0  0  0  0  0  0  0
    1.9140  -21.4910   18.6024 C   0  0  0  0  0  0  0  0  0  0  0  0
    3.0293  -20.6792   19.1851 N   0  0  0  0  0  0  0  0  0  0  0  0
    3.0592  -19.5855   20.5623 C   0  0  0  0  0  0  0  0  0  0  0  0
    2.1644  -19.3933   21.3149 O   0  0  0  0  0  0  0  0  0  0  0  0
    4.9183  -18.6500   20.9844 C   0  0  0  0  0  0  0  0  0  0  0  0
    6.6009  -18.7252   20.4954 C   0  0  0  0  0  0  0  0  0  0  0  0
    6.1058  -17.6200   19.7774 C   0  0  0  0  0  0  0  0  0  0  0  0
    6.7433  -16.1935   19.1878 C   0  0  0  0  0  0  0  0  0  0  0  0
    8.1025  -15.9657   18.9645 C   0  0  0  0  0  0  0  0  0  0  0  0
    8.2003  -14.7632   18.3012 N   0  0  0  0  0  0  0  0  0  0  0  0
    6.9329  -14.3668   18.0049 C   0  0  0  0  0  0  0  0  0  0  0  0
    6.0574  -15.2422   18.4497 N   0  0  0  0  0  0  0  0  0  0  0  0
   -0.0595  -25.3962   17.4181 C   0  0  0  0  0  0  0  0  0  0  0  0
   -0.1180  -26.6122   17.9758 N   0  0  0  0  0  0  0  0  0  0  0  0
   -1.0874  -27.4709   17.4854 C   0  0  0  0  0  0  0  0  0  0  0  0
   -1.4415  -28.7493   17.9854 C   0  0  0  0  0  0  0  0  0  0  0  0
   -2.5326  -29.4466   17.4497 C   0  0  0  0  0  0  0  0  0  0  0  0
   -3.2338  -28.9072   16.3788 C   0  0  0  0  0  0  0  0  0  0  0  0
   -2.8583  -27.6685   15.8261 C   0  0  0  0  0  0  0  0  0  0  0  0
   -1.7880  -26.9499   16.4116 C   0  0  0  0  0  0  0  0  0  0  0  0
   -1.1464  -25.3622   16.0730 S   0  0  0  0  0  0  0  0  0  0  0  0
    1.8765  -26.8107   19.0472 H   0  0  0  0  0  0  0  0  0  0  0  0
    2.9756  -25.5026   18.7125 H   0  0  0  0  0  0  0  0  0  0  0  0
    2.5721  -25.9740   20.3889 H   0  0  0  0  0  0  0  0  0  0  0  0
    0.1537  -25.3392   19.8860 H   0  0  0  0  0  0  0  0  0  0  0  0
    1.0827  -23.9426   20.0294 H   0  0  0  0  0  0  0  0  0  0  0  0
    1.0054  -22.6529   16.6432 H   0  0  0  0  0  0  0  0  0  0  0  0
    2.5098  -23.4320   17.0985 H   0  0  0  0  0  0  0  0  0  0  0  0
    1.4196  -21.7200   19.5323 H   0  0  0  0  0  0  0  0  0  0  0  0
    1.7657  -20.7174   17.8451 H   0  0  0  0  0  0  0  0  0  0  0  0
    3.9137  -20.7146   18.7788 H   0  0  0  0  0  0  0  0  0  0  0  0
    5.0888  -19.8943   20.6903 H   0  0  0  0  0  0  0  0  0  0  0  0
    7.0083  -19.5615   19.9093 H   0  0  0  0  0  0  0  0  0  0  0  0
    7.4557  -18.8111   21.1223 H   0  0  0  0  0  0  0  0  0  0  0  0
    6.5542  -17.9887   18.8563 H   0  0  0  0  0  0  0  0  0  0  0  0
    8.9785  -16.5470   19.2145 H   0  0  0  0  0  0  0  0  0  0  0  0
    9.0501  -14.3012   18.0079 H   0  0  0  0  0  0  0  0  0  0  0  0
    6.7020  -13.4686   17.4481 H   0  0  0  0  0  0  0  0  0  0  0  0
   -0.9019  -29.1457   18.8406 H   0  0  0  0  0  0  0  0  0  0  0  0
   -2.8252  -30.3995   17.8820 H   0  0  0  0  0  0  0  0  0  0  0  0
   -4.0780  -29.4491   15.9593 H   0  0  0  0  0  0  0  0  0  0  0  0
   -3.4110  -27.2473   14.9921 H   0  0  0  0  0  0  0  0  0  0  0  0
  1  2  1  0
  2  3  1  0
  3  4  1  0
  4  5  1  0
  5  6  1  0
  6  7  1  0
  7  8  2  0
  7  9  1  0
  9 10  1  0
 10 11  1  0
 11 12  1  0
 12 13  2  0
 13 14  1  0
 14 15  1  0
 15 16  2  0
  3 17  1  0
 17 18  2  0
 18 19  1  0
 19 20  2  0
 20 21  1  0
 21 22  2  0
 22 23  1  0
 23 24  2  0
 24 25  1  0
 11  9  1  0
 16 12  1  0
 25 17  1  0
 24 19  1  0
  1 26  1  0
  1 27  1  0
  1 28  1  0
  2 29  1  0
  2 30  1  0
  4 31  1  0
  4 32  1  0
  5 33  1  0
  5 34  1  0
  6 35  1  0
  9 36  1  0
 10 37  1  0
 10 38  1  0
 11 39  1  0
 13 40  1  0
 14 41  1  0
 15 42  1  0
 20 43  1  0
 21 44  1  0
 22 45  1  0
 23 46  1  0
M  END
>  <Energy>  (1303) 
455.19705616550226

>  <compound_id>  (1303) 
59653

>  <target_id>  (1303) 
1

>  <reference_id>  (1303) 
80

>  <inspiration_ids>  (1303) 
[68, 80]

>  <energy_score>  (1303) 
403.7125495179506

>  <distance_score>  (1303) 
13.78562793634255

>  <path>  (1303) 
/opt/xchem-fragalysis-2/maxwin/BulkDock/SCRATCH/511021/C59653-P80/C59653-P80.minimised.mol

>  <scratch_subdir>  (1303) 
/opt/xchem-fragalysis-2/maxwin/BulkDock/SCRATCH/511021/C59653-P80

>  <fragmenstein_runtime>  (1303) 
15.870548486709595

>  <fragmenstein_outcome>  (1303) 
too moved

>  <fragmenstein_mode>  (1303) 
expansion

>  <fragmenstein_error>  (1303) 


$$$$
C32765-P68
     RDKit          3D

 41 43  0  0  0  0  0  0  0  0999 V2000
    1.2362  -27.8937   21.8092 C   0  0  0  0  0  0  0  0  0  0  0  0
    1.3785  -27.0839   20.6500 O   0  0  0  0  0  0  0  0  0  0  0  0
    0.5901  -25.8877   20.7569 C   0  0  0  0  0  0  0  0  0  0  0  0
    0.7197  -25.0682   19.5080 C   0  0  0  0  0  0  0  0  0  0  0  0
    0.3409  -25.7839   18.3455 C   0  0  0  0  0  0  0  0  0  0  0  0
    0.7304  -25.3352   17.1103 C   0  0  0  0  0  0  0  0  0  0  0  0
    1.5123  -24.1816   17.0276 C   0  0  0  0  0  0  0  0  0  0  0  0
    1.7696  -23.3853   18.1664 C   0  0  0  0  0  0  0  0  0  0  0  0
    2.7061  -21.9282   18.2489 S   0  0  0  0  0  0  0  0  0  0  0  0
    2.9613  -22.0016   20.3312 C   0  0  0  0  0  0  0  0  0  0  0  0
    4.7132  -22.5479   20.5688 N   0  0  0  0  0  0  0  0  0  0  0  0
    6.2439  -21.5859   20.9209 C   0  0  0  0  0  0  0  0  0  0  0  0
    6.3407  -20.4073   21.1644 O   0  0  0  0  0  0  0  0  0  0  0  0
    7.3876  -22.6895   20.6798 N   0  0  0  0  0  0  0  0  0  0  0  0
    8.8778  -22.5378   20.5884 C   0  0  0  0  0  0  0  0  0  0  0  0
    9.5173  -23.7421   19.8787 C   0  0  0  0  0  0  0  0  0  0  0  0
   10.9251  -23.6274   19.7048 O   0  0  0  0  0  0  0  0  0  0  0  0
    9.2422  -21.1573   19.8442 C   0  0  0  0  0  0  0  0  0  0  0  0
    9.6538  -20.0216   20.4012 N   0  0  0  0  0  0  0  0  0  0  0  0
    9.7875  -19.0896   19.3930 C   0  0  0  0  0  0  0  0  0  0  0  0
    9.5320  -19.6676   18.1787 C   0  0  0  0  0  0  0  0  0  0  0  0
    9.2239  -20.9752   18.4696 N   0  0  0  0  0  0  0  0  0  0  0  0
    1.6711  -22.6776   20.3815 N   0  0  0  0  0  0  0  0  0  0  0  0
    1.3124  -23.7374   19.4094 C   0  0  0  0  0  0  0  0  0  0  0  0
    1.8600  -28.7830   21.6859 H   0  0  0  0  0  0  0  0  0  0  0  0
    0.1960  -28.2112   21.9298 H   0  0  0  0  0  0  0  0  0  0  0  0
    1.5713  -27.3530   22.6995 H   0  0  0  0  0  0  0  0  0  0  0  0
    0.9861  -25.3188   21.5724 H   0  0  0  0  0  0  0  0  0  0  0  0
   -0.4555  -26.1629   20.9286 H   0  0  0  0  0  0  0  0  0  0  0  0
   -0.1465  -26.7529   18.4346 H   0  0  0  0  0  0  0  0  0  0  0  0
    0.5260  -25.9211   16.2194 H   0  0  0  0  0  0  0  0  0  0  0  0
    1.9608  -23.8940   16.0809 H   0  0  0  0  0  0  0  0  0  0  0  0
    4.9470  -23.4741   20.3191 H   0  0  0  0  0  0  0  0  0  0  0  0
    6.9646  -23.5956   20.5817 H   0  0  0  0  0  0  0  0  0  0  0  0
    9.2874  -22.4595   21.6003 H   0  0  0  0  0  0  0  0  0  0  0  0
    9.3244  -24.6543   20.4540 H   0  0  0  0  0  0  0  0  0  0  0  0
    9.0737  -23.8918   18.8881 H   0  0  0  0  0  0  0  0  0  0  0  0
   11.2973  -23.1351   20.4608 H   0  0  0  0  0  0  0  0  0  0  0  0
   10.0696  -18.0659   19.5948 H   0  0  0  0  0  0  0  0  0  0  0  0
    9.5533  -19.2893   17.1670 H   0  0  0  0  0  0  0  0  0  0  0  0
    9.0219  -21.6972   17.7928 H   0  0  0  0  0  0  0  0  0  0  0  0
  1  2  1  0
  2  3  1  0
  3  4  1  0
  4  5  2  0
  5  6  1  0
  6  7  2  0
  7  8  1  0
  8  9  1  0
  9 10  1  0
 10 11  1  0
 11 12  1  0
 12 13  2  0
 12 14  1  0
 14 15  1  0
 15 16  1  0
 16 17  1  0
 15 18  1  0
 18 19  2  0
 19 20  1  0
 20 21  2  0
 21 22  1  0
 10 23  2  0
 23 24  1  0
 24  4  1  0
 24  8  2  0
 22 18  1  0
  1 25  1  0
  1 26  1  0
  1 27  1  0
  3 28  1  0
  3 29  1  0
  5 30  1  0
  6 31  1  0
  7 32  1  0
 11 33  1  0
 14 34  1  0
 15 35  1  0
 16 36  1  0
 16 37  1  0
 17 38  1  0
 20 39  1  0
 21 40  1  0
 22 41  1  0
M  END
>  <Energy>  (1304) 
213.19306101519314

>  <compound_id>  (1304) 
32765

>  <target_id>  (1304) 
1

>  <reference_id>  (1304) 
68

>  <inspiration_ids>  (1304) 
[68, 80]

>  <energy_score>  (1304) 
175.44091651549797

>  <distance_score>  (1304) 
17.45061703285044

>  <path>  (1304) 
/opt/xchem-fragalysis-2/maxwin/BulkDock/SCRATCH/511021/C32765-P68/C32765-P68.minimised.mol

>  <scratch_subdir>  (1304) 
/opt/xchem-fragalysis-2/maxwin/BulkDock/SCRATCH/511021/C32765-P68

>  <fragmenstein_runtime>  (1304) 
31.51491641998291

>  <fragmenstein_outcome>  (1304) 
too moved

>  <fragmenstein_mode>  (1304) 
expansion

>  <fragmenstein_error>  (1304) 


$$$$
C32765-P80
     RDKit          3D

 41 43  0  0  0  0  0  0  0  0999 V2000
    0.4076  -27.2157   24.7276 C   0  0  0  0  0  0  0  0  0  0  0  0
   -0.1030  -27.1856   23.4028 O   0  0  0  0  0  0  0  0  0  0  0  0
    0.8775  -26.7037   22.4848 C   0  0  0  0  0  0  0  0  0  0  0  0
    0.2697  -26.5026   21.1105 C   0  0  0  0  0  0  0  0  0  0  0  0
   -0.4070  -27.6057   20.5276 C   0  0  0  0  0  0  0  0  0  0  0  0
   -0.8288  -27.5680   19.2090 C   0  0  0  0  0  0  0  0  0  0  0  0
   -0.5005  -26.4668   18.4131 C   0  0  0  0  0  0  0  0  0  0  0  0
    0.1385  -25.3435   18.9989 C   0  0  0  0  0  0  0  0  0  0  0  0
    0.7880  -23.9408   18.2284 S   0  0  0  0  0  0  0  0  0  0  0  0
    0.9641  -22.8730   20.0584 C   0  0  0  0  0  0  0  0  0  0  0  0
    1.8297  -21.3808   19.8959 N   0  0  0  0  0  0  0  0  0  0  0  0
    2.3196  -20.0940   21.1565 C   0  0  0  0  0  0  0  0  0  0  0  0
    2.0713  -19.9827   22.2868 O   0  0  0  0  0  0  0  0  0  0  0  0
    3.1447  -19.4266   20.3358 N   0  0  0  0  0  0  0  0  0  0  0  0
    4.6777  -17.8424   20.5724 C   0  0  0  0  0  0  0  0  0  0  0  0
    6.4862  -18.1423   20.1817 C   0  0  0  0  0  0  0  0  0  0  0  0
    7.3747  -19.0649   20.6175 O   0  0  0  0  0  0  0  0  0  0  0  0
    4.5297  -16.2379   19.0806 C   0  0  0  0  0  0  0  0  0  0  0  0
    4.8124  -14.7681   18.5662 N   0  0  0  0  0  0  0  0  0  0  0  0
    3.7623  -13.6895   18.7496 C   0  0  0  0  0  0  0  0  0  0  0  0
    2.6094  -14.3564   18.7013 C   0  0  0  0  0  0  0  0  0  0  0  0
    3.1621  -15.5443   18.2287 N   0  0  0  0  0  0  0  0  0  0  0  0
    0.6397  -23.8531   20.8693 N   0  0  0  0  0  0  0  0  0  0  0  0
    0.4075  -25.2764   20.3484 C   0  0  0  0  0  0  0  0  0  0  0  0
   -0.3733  -27.6011   25.3886 H   0  0  0  0  0  0  0  0  0  0  0  0
    0.6789  -26.2091   25.0601 H   0  0  0  0  0  0  0  0  0  0  0  0
    1.2759  -27.8790   24.7886 H   0  0  0  0  0  0  0  0  0  0  0  0
    1.6772  -27.4501   22.3975 H   0  0  0  0  0  0  0  0  0  0  0  0
    1.3357  -25.7847   22.8589 H   0  0  0  0  0  0  0  0  0  0  0  0
   -0.5805  -28.5017   21.1219 H   0  0  0  0  0  0  0  0  0  0  0  0
   -1.3403  -28.4232   18.7758 H   0  0  0  0  0  0  0  0  0  0  0  0
   -0.7273  -26.4725   17.3513 H   0  0  0  0  0  0  0  0  0  0  0  0
    2.1474  -21.1462   18.9700 H   0  0  0  0  0  0  0  0  0  0  0  0
    3.1479  -19.8755   19.4326 H   0  0  0  0  0  0  0  0  0  0  0  0
    5.3210  -17.5348   19.6622 H   0  0  0  0  0  0  0  0  0  0  0  0
    6.9141  -17.1520   20.2408 H   0  0  0  0  0  0  0  0  0  0  0  0
    6.7533  -18.1858   19.1100 H   0  0  0  0  0  0  0  0  0  0  0  0
    7.7658  -18.6662   21.4259 H   0  0  0  0  0  0  0  0  0  0  0  0
    3.9986  -12.6473   18.9054 H   0  0  0  0  0  0  0  0  0  0  0  0
    1.5664  -14.0912   18.6893 H   0  0  0  0  0  0  0  0  0  0  0  0
    2.5697  -16.2136   17.7983 H   0  0  0  0  0  0  0  0  0  0  0  0
  1  2  1  0
  2  3  1  0
  3  4  1  0
  4  5  2  0
  5  6  1  0
  6  7  2  0
  7  8  1  0
  8  9  1  0
  9 10  1  0
 10 11  1  0
 11 12  1  0
 12 13  2  0
 12 14  1  0
 14 15  1  0
 15 16  1  0
 16 17  1  0
 15 18  1  0
 18 19  2  0
 19 20  1  0
 20 21  2  0
 21 22  1  0
 10 23  2  0
 23 24  1  0
 24  4  1  0
 24  8  2  0
 22 18  1  0
  1 25  1  0
  1 26  1  0
  1 27  1  0
  3 28  1  0
  3 29  1  0
  5 30  1  0
  6 31  1  0
  7 32  1  0
 11 33  1  0
 14 34  1  0
 15 35  1  0
 16 36  1  0
 16 37  1  0
 17 38  1  0
 20 39  1  0
 21 40  1  0
 22 41  1  0
M  END
>  <Energy>  (1305) 
802.77320677760463

>  <compound_id>  (1305) 
32765

>  <target_id>  (1305) 
1

>  <reference_id>  (1305) 
80

>  <inspiration_ids>  (1305) 
[68, 80]

>  <energy_score>  (1305) 
765.0210622779235

>  <distance_score>  (1305) 
14.837152802661961

>  <path>  (1305) 
/opt/xchem-fragalysis-2/maxwin/BulkDock/SCRATCH/511021/C32765-P80/C32765-P80.minimised.mol

>  <scratch_subdir>  (1305) 
/opt/xchem-fragalysis-2/maxwin/BulkDock/SCRATCH/511021/C32765-P80

>  <fragmenstein_runtime>  (1305) 
12.658191442489624

>  <fragmenstein_outcome>  (1305) 
too moved

>  <fragmenstein_mode>  (1305) 
expansion

>  <fragmenstein_error>  (1305) 


$$$$
C32766-P68
     RDKit          3D

 38 40  0  0  0  0  0  0  0  0999 V2000
   -5.1160  -29.8991   18.2186 C   0  0  0  0  0  0  0  0  0  0  0  0
   -4.2538  -29.9374   19.3453 O   0  0  0  0  0  0  0  0  0  0  0  0
   -2.9441  -29.5687   19.2089 C   0  0  0  0  0  0  0  0  0  0  0  0
   -2.1475  -29.6964   20.3530 C   0  0  0  0  0  0  0  0  0  0  0  0
   -0.8087  -29.2750   20.3900 C   0  0  0  0  0  0  0  0  0  0  0  0
   -0.2401  -28.6865   19.2456 C   0  0  0  0  0  0  0  0  0  0  0  0
    1.0259  -28.0667   19.1365 N   0  0  0  0  0  0  0  0  0  0  0  0
    1.1383  -27.4708   17.9664 C   0  0  0  0  0  0  0  0  0  0  0  0
    1.9782  -26.4526   17.5215 N   0  0  0  0  0  0  0  0  0  0  0  0
    3.2667  -25.9465   18.0682 C   0  0  0  0  0  0  0  0  0  0  0  0
    3.9174  -26.3424   18.9616 O   0  0  0  0  0  0  0  0  0  0  0  0
    3.4840  -24.6505   17.1858 N   0  0  0  0  0  0  0  0  0  0  0  0
    4.4977  -23.5400   17.3069 C   0  0  0  0  0  0  0  0  0  0  0  0
    5.9313  -24.1377   17.2754 C   0  0  0  0  0  0  0  0  0  0  0  0
    6.2360  -24.8954   18.4581 O   0  0  0  0  0  0  0  0  0  0  0  0
    4.4440  -22.2215   16.4508 C   0  0  0  0  0  0  0  0  0  0  0  0
    5.4318  -21.7203   15.7019 N   0  0  0  0  0  0  0  0  0  0  0  0
    5.0808  -20.4312   15.3534 C   0  0  0  0  0  0  0  0  0  0  0  0
    3.8779  -20.1040   15.9170 C   0  0  0  0  0  0  0  0  0  0  0  0
    3.4971  -21.2194   16.6304 N   0  0  0  0  0  0  0  0  0  0  0  0
   -0.0598  -27.9787   16.8353 S   0  0  0  0  0  0  0  0  0  0  0  0
   -1.0219  -28.6511   18.0914 C   0  0  0  0  0  0  0  0  0  0  0  0
   -2.3661  -29.0911   18.0397 C   0  0  0  0  0  0  0  0  0  0  0  0
   -6.0737  -30.3213   18.5263 H   0  0  0  0  0  0  0  0  0  0  0  0
   -4.7285  -30.5172   17.4025 H   0  0  0  0  0  0  0  0  0  0  0  0
   -5.2761  -28.8685   17.8881 H   0  0  0  0  0  0  0  0  0  0  0  0
   -2.5449  -30.1412   21.2558 H   0  0  0  0  0  0  0  0  0  0  0  0
   -0.2268  -29.3552   21.3020 H   0  0  0  0  0  0  0  0  0  0  0  0
    1.7422  -25.9364   16.7120 H   0  0  0  0  0  0  0  0  0  0  0  0
    2.8040  -24.6318   16.4490 H   0  0  0  0  0  0  0  0  0  0  0  0
    4.3260  -23.2031   18.3254 H   0  0  0  0  0  0  0  0  0  0  0  0
    6.0643  -24.7916   16.4067 H   0  0  0  0  0  0  0  0  0  0  0  0
    6.6916  -23.3520   17.2246 H   0  0  0  0  0  0  0  0  0  0  0  0
    5.5205  -25.5611   18.5521 H   0  0  0  0  0  0  0  0  0  0  0  0
    5.7085  -19.8244   14.7150 H   0  0  0  0  0  0  0  0  0  0  0  0
    3.2621  -19.2140   15.8860 H   0  0  0  0  0  0  0  0  0  0  0  0
    2.6967  -21.2767   17.2469 H   0  0  0  0  0  0  0  0  0  0  0  0
   -2.9200  -29.0037   17.1132 H   0  0  0  0  0  0  0  0  0  0  0  0
  1  2  1  0
  2  3  1  0
  3  4  2  0
  4  5  1  0
  5  6  2  0
  6  7  1  0
  7  8  2  0
  8  9  1  0
  9 10  1  0
 10 11  2  0
 10 12  1  0
 12 13  1  0
 13 14  1  0
 14 15  1  0
 13 16  1  0
 16 17  2  0
 17 18  1  0
 18 19  2  0
 19 20  1  0
  8 21  1  0
 21 22  1  0
 22 23  2  0
 23  3  1  0
 22  6  1  0
 20 16  1  0
  1 24  1  0
  1 25  1  0
  1 26  1  0
  4 27  1  0
  5 28  1  0
  9 29  1  0
 12 30  1  0
 13 31  1  0
 14 32  1  0
 14 33  1  0
 15 34  1  0
 18 35  1  0
 19 36  1  0
 20 37  1  0
 23 38  1  0
M  END
>  <Energy>  (1306) 
-1.0550986033895131

>  <compound_id>  (1306) 
32766

>  <target_id>  (1306) 
1

>  <reference_id>  (1306) 
68

>  <inspiration_ids>  (1306) 
[68, 80]

>  <energy_score>  (1306) 
-41.96138116532143

>  <distance_score>  (1306) 
15.22057232404695

>  <path>  (1306) 
/opt/xchem-fragalysis-2/maxwin/BulkDock/SCRATCH/511021/C32766-P68/C32766-P68.minimised.mol

>  <scratch_subdir>  (1306) 
/opt/xchem-fragalysis-2/maxwin/BulkDock/SCRATCH/511021/C32766-P68

>  <fragmenstein_runtime>  (1306) 
23.879183292388916

>  <fragmenstein_outcome>  (1306) 
too moved

>  <fragmenstein_mode>  (1306) 
expansion

>  <fragmenstein_error>  (1306) 


$$$$
C32766-P80
     RDKit          3D

 38 40  0  0  0  0  0  0  0  0999 V2000
   -6.2991  -31.1166   21.2642 C   0  0  0  0  0  0  0  0  0  0  0  0
   -5.6253  -30.7289   20.0637 O   0  0  0  0  0  0  0  0  0  0  0  0
   -4.6281  -29.7889   20.1732 C   0  0  0  0  0  0  0  0  0  0  0  0
   -4.1908  -29.2184   21.3634 C   0  0  0  0  0  0  0  0  0  0  0  0
   -3.1650  -28.2504   21.3565 C   0  0  0  0  0  0  0  0  0  0  0  0
   -2.5577  -27.8235   20.1458 C   0  0  0  0  0  0  0  0  0  0  0  0
   -1.5576  -26.8410   19.9935 N   0  0  0  0  0  0  0  0  0  0  0  0
   -1.2373  -26.6419   18.7249 C   0  0  0  0  0  0  0  0  0  0  0  0
   -0.3152  -25.6727   18.2820 N   0  0  0  0  0  0  0  0  0  0  0  0
    0.3171  -25.4500   16.8990 C   0  0  0  0  0  0  0  0  0  0  0  0
    0.1087  -25.9971   15.8784 O   0  0  0  0  0  0  0  0  0  0  0  0
    1.3953  -24.3653   17.2333 N   0  0  0  0  0  0  0  0  0  0  0  0
    2.5259  -23.7949   16.3867 C   0  0  0  0  0  0  0  0  0  0  0  0
    2.7411  -24.6049   15.0802 C   0  0  0  0  0  0  0  0  0  0  0  0
    4.0088  -24.3118   14.4763 O   0  0  0  0  0  0  0  0  0  0  0  0
    2.6431  -22.2537   16.0936 C   0  0  0  0  0  0  0  0  0  0  0  0
    3.0717  -21.7076   14.9501 N   0  0  0  0  0  0  0  0  0  0  0  0
    2.9594  -20.3424   15.0897 C   0  0  0  0  0  0  0  0  0  0  0  0
    2.5549  -20.0470   16.3602 C   0  0  0  0  0  0  0  0  0  0  0  0
    2.5541  -21.2430   17.0298 N   0  0  0  0  0  0  0  0  0  0  0  0
   -2.0744  -27.6974   17.6495 S   0  0  0  0  0  0  0  0  0  0  0  0
   -2.9935  -28.4101   18.9595 C   0  0  0  0  0  0  0  0  0  0  0  0
   -4.0216  -29.3962   18.9594 C   0  0  0  0  0  0  0  0  0  0  0  0
   -7.0470  -31.8705   21.0024 H   0  0  0  0  0  0  0  0  0  0  0  0
   -5.6004  -31.5800   21.9684 H   0  0  0  0  0  0  0  0  0  0  0  0
   -6.8097  -30.2634   21.7224 H   0  0  0  0  0  0  0  0  0  0  0  0
   -4.6203  -29.4936   22.3220 H   0  0  0  0  0  0  0  0  0  0  0  0
   -2.8362  -27.8012   22.2897 H   0  0  0  0  0  0  0  0  0  0  0  0
    0.1470  -25.0925   18.9578 H   0  0  0  0  0  0  0  0  0  0  0  0
    1.3674  -24.1587   18.2192 H   0  0  0  0  0  0  0  0  0  0  0  0
    3.4188  -24.0022   16.9921 H   0  0  0  0  0  0  0  0  0  0  0  0
    1.9617  -24.4112   14.3389 H   0  0  0  0  0  0  0  0  0  0  0  0
    2.7392  -25.6783   15.2951 H   0  0  0  0  0  0  0  0  0  0  0  0
    3.9711  -23.3480   14.2793 H   0  0  0  0  0  0  0  0  0  0  0  0
    3.1091  -19.6654   14.2588 H   0  0  0  0  0  0  0  0  0  0  0  0
    2.2527  -19.1265   16.8310 H   0  0  0  0  0  0  0  0  0  0  0  0
    2.3814  -21.3835   18.0186 H   0  0  0  0  0  0  0  0  0  0  0  0
   -4.3506  -29.8379   18.0229 H   0  0  0  0  0  0  0  0  0  0  0  0
  1  2  1  0
  2  3  1  0
  3  4  2  0
  4  5  1  0
  5  6  2  0
  6  7  1  0
  7  8  2  0
  8  9  1  0
  9 10  1  0
 10 11  2  0
 10 12  1  0
 12 13  1  0
 13 14  1  0
 14 15  1  0
 13 16  1  0
 16 17  2  0
 17 18  1  0
 18 19  2  0
 19 20  1  0
  8 21  1  0
 21 22  1  0
 22 23  2  0
 23  3  1  0
 22  6  1  0
 20 16  1  0
  1 24  1  0
  1 25  1  0
  1 26  1  0
  4 27  1  0
  5 28  1  0
  9 29  1  0
 12 30  1  0
 13 31  1  0
 14 32  1  0
 14 33  1  0
 15 34  1  0
 18 35  1  0
 19 36  1  0
 20 37  1  0
 23 38  1  0
M  END
>  <Energy>  (1307) 
-2.9256639445282451

>  <compound_id>  (1307) 
32766

>  <target_id>  (1307) 
1

>  <reference_id>  (1307) 
80

>  <inspiration_ids>  (1307) 
[68, 80]

>  <energy_score>  (1307) 
-43.83194650645868

>  <distance_score>  (1307) 
14.99084084659587

>  <path>  (1307) 
/opt/xchem-fragalysis-2/maxwin/BulkDock/SCRATCH/511021/C32766-P80/C32766-P80.minimised.mol

>  <scratch_subdir>  (1307) 
/opt/xchem-fragalysis-2/maxwin/BulkDock/SCRATCH/511021/C32766-P80

>  <fragmenstein_runtime>  (1307) 
25.010313272476196

>  <fragmenstein_outcome>  (1307) 
too moved

>  <fragmenstein_mode>  (1307) 
expansion

>  <fragmenstein_error>  (1307) 


$$$$
C59654-P68
     RDKit          3D

 41 43  0  0  0  0  0  0  0  0999 V2000
   -0.8319  -28.1222   21.5701 C   0  0  0  0  0  0  0  0  0  0  0  0
   -1.4004  -26.6844   21.0294 C   0  0  0  0  0  0  0  0  0  0  0  0
   -3.3249  -26.6350   20.9346 C   0  0  0  0  0  0  0  0  0  0  0  0
   -4.1929  -27.6707   20.7138 N   0  0  0  0  0  0  0  0  0  0  0  0
   -5.4959  -27.3534   20.2527 C   0  0  0  0  0  0  0  0  0  0  0  0
   -6.3696  -28.1717   19.4875 C   0  0  0  0  0  0  0  0  0  0  0  0
   -7.7107  -27.8088   19.3177 C   0  0  0  0  0  0  0  0  0  0  0  0
   -8.1664  -26.6148   19.8526 C   0  0  0  0  0  0  0  0  0  0  0  0
   -7.2721  -25.7224   20.4589 C   0  0  0  0  0  0  0  0  0  0  0  0
   -5.9210  -26.0944   20.5842 C   0  0  0  0  0  0  0  0  0  0  0  0
   -4.5506  -25.1473   20.9677 S   0  0  0  0  0  0  0  0  0  0  0  0
   -0.1199  -25.5306   20.4039 N   0  0  0  0  0  0  0  0  0  0  0  0
    0.5427  -26.7559   20.0748 C   0  0  0  0  0  0  0  0  0  0  0  0
   -0.1300  -24.6003   19.1912 C   0  0  0  0  0  0  0  0  0  0  0  0
   -0.9473  -24.4773   18.3131 O   0  0  0  0  0  0  0  0  0  0  0  0
    1.1784  -23.5839   19.1007 C   0  0  0  0  0  0  0  0  0  0  0  0
    2.1384  -24.1653   18.2231 O   0  0  0  0  0  0  0  0  0  0  0  0
    1.3328  -21.9525   19.0934 C   0  0  0  0  0  0  0  0  0  0  0  0
    1.8271  -21.0089   17.9345 C   0  0  0  0  0  0  0  0  0  0  0  0
    1.3921  -19.7057   17.6743 C   0  0  0  0  0  0  0  0  0  0  0  0
    2.2380  -19.1675   16.7397 N   0  0  0  0  0  0  0  0  0  0  0  0
    3.1648  -20.1206   16.4524 C   0  0  0  0  0  0  0  0  0  0  0  0
    2.9649  -21.2166   17.1592 N   0  0  0  0  0  0  0  0  0  0  0  0
   -0.2979  -28.7270   20.8335 H   0  0  0  0  0  0  0  0  0  0  0  0
   -1.5798  -28.8488   21.8899 H   0  0  0  0  0  0  0  0  0  0  0  0
   -0.1021  -27.9177   22.3509 H   0  0  0  0  0  0  0  0  0  0  0  0
   -1.4293  -26.2038   22.0028 H   0  0  0  0  0  0  0  0  0  0  0  0
   -6.0280  -29.1366   19.1221 H   0  0  0  0  0  0  0  0  0  0  0  0
   -8.3954  -28.4753   18.7999 H   0  0  0  0  0  0  0  0  0  0  0  0
   -9.2124  -26.3359   19.7463 H   0  0  0  0  0  0  0  0  0  0  0  0
   -7.6058  -24.7370   20.7711 H   0  0  0  0  0  0  0  0  0  0  0  0
    1.0870  -27.1404   20.9429 H   0  0  0  0  0  0  0  0  0  0  0  0
    0.0530  -27.4774   19.4367 H   0  0  0  0  0  0  0  0  0  0  0  0
    1.4193  -26.4190   19.5132 H   0  0  0  0  0  0  0  0  0  0  0  0
    1.4476  -23.7729   20.1405 H   0  0  0  0  0  0  0  0  0  0  0  0
    2.9867  -23.9866   18.6789 H   0  0  0  0  0  0  0  0  0  0  0  0
    2.0850  -21.7552   19.8673 H   0  0  0  0  0  0  0  0  0  0  0  0
    0.4195  -21.5435   19.5306 H   0  0  0  0  0  0  0  0  0  0  0  0
    0.5964  -19.1222   18.1117 H   0  0  0  0  0  0  0  0  0  0  0  0
    2.1860  -18.2425   16.3392 H   0  0  0  0  0  0  0  0  0  0  0  0
    3.9592  -19.9723   15.7353 H   0  0  0  0  0  0  0  0  0  0  0  0
  1  2  1  0
  2  3  1  0
  3  4  2  0
  4  5  1  0
  5  6  2  0
  6  7  1  0
  7  8  2  0
  8  9  1  0
  9 10  2  0
 10 11  1  0
  2 12  1  0
 12 13  1  0
 12 14  1  0
 14 15  2  0
 14 16  1  0
 16 17  1  0
 16 18  1  0
 18 19  1  0
 19 20  2  0
 20 21  1  0
 21 22  1  0
 22 23  2  0
 11  3  1  0
 23 19  1  0
 10  5  1  0
  1 24  1  0
  1 25  1  0
  1 26  1  0
  2 27  1  0
  6 28  1  0
  7 29  1  0
  8 30  1  0
  9 31  1  0
 13 32  1  0
 13 33  1  0
 13 34  1  0
 16 35  1  0
 17 36  1  0
 18 37  1  0
 18 38  1  0
 20 39  1  0
 21 40  1  0
 22 41  1  0
M  END
>  <Energy>  (1308) 
317.9106427881527

>  <compound_id>  (1308) 
59654

>  <target_id>  (1308) 
1

>  <reference_id>  (1308) 
68

>  <inspiration_ids>  (1308) 
[68, 80]

>  <energy_score>  (1308) 
171.11839603778685

>  <distance_score>  (1308) 
15.306809274221783

>  <path>  (1308) 
/opt/xchem-fragalysis-2/maxwin/BulkDock/SCRATCH/511021/C59654-P68/C59654-P68.minimised.mol

>  <scratch_subdir>  (1308) 
/opt/xchem-fragalysis-2/maxwin/BulkDock/SCRATCH/511021/C59654-P68

>  <fragmenstein_runtime>  (1308) 
16.392261028289795

>  <fragmenstein_outcome>  (1308) 
too moved

>  <fragmenstein_mode>  (1308) 
expansion

>  <fragmenstein_error>  (1308) 


$$$$
C59654-P80
     RDKit          3D

 41 43  0  0  0  0  0  0  0  0999 V2000
    2.1415  -23.5615   15.5939 C   0  0  0  0  0  0  0  0  0  0  0  0
    0.7841  -22.9444   15.1568 C   0  0  0  0  0  0  0  0  0  0  0  0
   -0.3643  -23.8820   15.9110 C   0  0  0  0  0  0  0  0  0  0  0  0
   -0.1425  -24.7654   16.8884 N   0  0  0  0  0  0  0  0  0  0  0  0
   -1.1401  -25.7666   16.9723 C   0  0  0  0  0  0  0  0  0  0  0  0
   -1.1308  -26.9383   17.7711 C   0  0  0  0  0  0  0  0  0  0  0  0
   -2.1706  -27.8827   17.6709 C   0  0  0  0  0  0  0  0  0  0  0  0
   -3.2729  -27.6405   16.8640 C   0  0  0  0  0  0  0  0  0  0  0  0
   -3.3191  -26.4815   16.0826 C   0  0  0  0  0  0  0  0  0  0  0  0
   -2.2227  -25.5832   16.1178 C   0  0  0  0  0  0  0  0  0  0  0  0
   -1.9161  -24.1822   15.1431 S   0  0  0  0  0  0  0  0  0  0  0  0
    1.0783  -21.2982   15.3009 N   0  0  0  0  0  0  0  0  0  0  0  0
   -0.2381  -21.2182   14.6314 C   0  0  0  0  0  0  0  0  0  0  0  0
    2.0626  -20.4251   14.6001 C   0  0  0  0  0  0  0  0  0  0  0  0
    2.8264  -20.6760   13.6919 O   0  0  0  0  0  0  0  0  0  0  0  0
    2.1428  -18.8393   15.1384 C   0  0  0  0  0  0  0  0  0  0  0  0
    0.9303  -18.1250   14.9069 O   0  0  0  0  0  0  0  0  0  0  0  0
    3.3543  -18.0280   14.4225 C   0  0  0  0  0  0  0  0  0  0  0  0
    3.7140  -16.5551   14.7114 C   0  0  0  0  0  0  0  0  0  0  0  0
    4.9226  -15.9180   14.4426 C   0  0  0  0  0  0  0  0  0  0  0  0
    4.7627  -14.6027   14.7957 N   0  0  0  0  0  0  0  0  0  0  0  0
    3.4887  -14.4714   15.2638 C   0  0  0  0  0  0  0  0  0  0  0  0
    2.8363  -15.6195   15.2264 N   0  0  0  0  0  0  0  0  0  0  0  0
    2.9716  -23.1380   15.0193 H   0  0  0  0  0  0  0  0  0  0  0  0
    2.3324  -23.3599   16.6517 H   0  0  0  0  0  0  0  0  0  0  0  0
    2.1563  -24.6464   15.4419 H   0  0  0  0  0  0  0  0  0  0  0  0
    0.7499  -23.1986   14.0828 H   0  0  0  0  0  0  0  0  0  0  0  0
   -0.2932  -27.1180   18.4393 H   0  0  0  0  0  0  0  0  0  0  0  0
   -2.1109  -28.7994   18.2539 H   0  0  0  0  0  0  0  0  0  0  0  0
   -4.0822  -28.3645   16.8188 H   0  0  0  0  0  0  0  0  0  0  0  0
   -4.1538  -26.3027   15.4115 H   0  0  0  0  0  0  0  0  0  0  0  0
   -0.2691  -21.6044   13.6035 H   0  0  0  0  0  0  0  0  0  0  0  0
   -1.0646  -21.5221   15.2755 H   0  0  0  0  0  0  0  0  0  0  0  0
   -0.4382  -20.1486   14.4855 H   0  0  0  0  0  0  0  0  0  0  0  0
    2.3098  -18.8885   16.2166 H   0  0  0  0  0  0  0  0  0  0  0  0
    1.1295  -17.1906   15.1240 H   0  0  0  0  0  0  0  0  0  0  0  0
    4.2667  -18.6194   14.5754 H   0  0  0  0  0  0  0  0  0  0  0  0
    3.1438  -18.0580   13.3439 H   0  0  0  0  0  0  0  0  0  0  0  0
    5.8469  -16.2823   14.0164 H   0  0  0  0  0  0  0  0  0  0  0  0
    5.4490  -13.8648   14.7113 H   0  0  0  0  0  0  0  0  0  0  0  0
    3.0875  -13.5286   15.6115 H   0  0  0  0  0  0  0  0  0  0  0  0
  1  2  1  0
  2  3  1  0
  3  4  2  0
  4  5  1  0
  5  6  2  0
  6  7  1  0
  7  8  2  0
  8  9  1  0
  9 10  2  0
 10 11  1  0
  2 12  1  0
 12 13  1  0
 12 14  1  0
 14 15  2  0
 14 16  1  0
 16 17  1  0
 16 18  1  0
 18 19  1  0
 19 20  2  0
 20 21  1  0
 21 22  1  0
 22 23  2  0
 11  3  1  0
 23 19  1  0
 10  5  1  0
  1 24  1  0
  1 25  1  0
  1 26  1  0
  2 27  1  0
  6 28  1  0
  7 29  1  0
  8 30  1  0
  9 31  1  0
 13 32  1  0
 13 33  1  0
 13 34  1  0
 16 35  1  0
 17 36  1  0
 18 37  1  0
 18 38  1  0
 20 39  1  0
 21 40  1  0
 22 41  1  0
M  END
>  <Energy>  (1309) 
172.0397565988269

>  <compound_id>  (1309) 
59654

>  <target_id>  (1309) 
1

>  <reference_id>  (1309) 
80

>  <inspiration_ids>  (1309) 
[68, 80]

>  <energy_score>  (1309) 
25.24750984845366

>  <distance_score>  (1309) 
14.933618326339003

>  <path>  (1309) 
/opt/xchem-fragalysis-2/maxwin/BulkDock/SCRATCH/511021/C59654-P80/C59654-P80.minimised.mol

>  <scratch_subdir>  (1309) 
/opt/xchem-fragalysis-2/maxwin/BulkDock/SCRATCH/511021/C59654-P80

>  <fragmenstein_runtime>  (1309) 
11.868268251419067

>  <fragmenstein_outcome>  (1309) 
too moved

>  <fragmenstein_mode>  (1309) 
expansion

>  <fragmenstein_error>  (1309) 


$$$$
C32767-P68
     RDKit          3D

 37 41  0  0  0  0  0  0  0  0999 V2000
   -6.5278  -28.5423   19.0358 F   0  0  0  0  0  0  0  0  0  0  0  0
   -5.2175  -28.2988   18.8543 C   0  0  0  0  0  0  0  0  0  0  0  0
   -4.3233  -29.3512   18.9237 C   0  0  0  0  0  0  0  0  0  0  0  0
   -2.9455  -29.1287   18.7758 C   0  0  0  0  0  0  0  0  0  0  0  0
   -2.4656  -27.8315   18.4662 C   0  0  0  0  0  0  0  0  0  0  0  0
   -1.1451  -27.4631   18.1926 N   0  0  0  0  0  0  0  0  0  0  0  0
   -1.0085  -26.1901   17.8197 C   0  0  0  0  0  0  0  0  0  0  0  0
    0.1551  -25.6614   17.2243 N   0  0  0  0  0  0  0  0  0  0  0  0
    1.3356  -26.5360   17.2837 C   0  0  0  0  0  0  0  0  0  0  0  0
    1.9697  -25.4967   18.2207 C   0  0  0  0  0  0  0  0  0  0  0  0
    1.0544  -24.5276   17.4907 C   0  0  0  0  0  0  0  0  0  0  0  0
    0.8498  -23.1182   18.0472 C   0  0  0  0  0  0  0  0  0  0  0  0
    2.2059  -22.7031   17.3256 C   0  0  0  0  0  0  0  0  0  0  0  0
    2.5700  -21.1961   16.7482 C   0  0  0  0  0  0  0  0  0  0  0  0
    2.3192  -20.0314   17.3274 N   0  0  0  0  0  0  0  0  0  0  0  0
    3.0121  -19.0750   16.5957 C   0  0  0  0  0  0  0  0  0  0  0  0
    3.7276  -19.6518   15.5822 C   0  0  0  0  0  0  0  0  0  0  0  0
    3.4242  -20.9840   15.6765 N   0  0  0  0  0  0  0  0  0  0  0  0
    1.7891  -23.8195   16.2899 C   0  0  0  0  0  0  0  0  0  0  0  0
   -2.5327  -25.3550   17.8937 S   0  0  0  0  0  0  0  0  0  0  0  0
   -3.3882  -26.7955   18.3630 C   0  0  0  0  0  0  0  0  0  0  0  0
   -4.7724  -27.0029   18.5879 C   0  0  0  0  0  0  0  0  0  0  0  0
   -4.7055  -30.3464   19.1007 H   0  0  0  0  0  0  0  0  0  0  0  0
   -2.2391  -29.9507   18.8502 H   0  0  0  0  0  0  0  0  0  0  0  0
    1.2044  -27.5285   17.7216 H   0  0  0  0  0  0  0  0  0  0  0  0
    1.8005  -26.6432   16.2964 H   0  0  0  0  0  0  0  0  0  0  0  0
    1.7298  -25.6456   19.2799 H   0  0  0  0  0  0  0  0  0  0  0  0
    3.0507  -25.3842   18.1064 H   0  0  0  0  0  0  0  0  0  0  0  0
   -0.0325  -22.6381   17.6322 H   0  0  0  0  0  0  0  0  0  0  0  0
    0.8513  -23.0154   19.1343 H   0  0  0  0  0  0  0  0  0  0  0  0
    3.0840  -23.0035   17.9142 H   0  0  0  0  0  0  0  0  0  0  0  0
    2.9665  -18.0265   16.8525 H   0  0  0  0  0  0  0  0  0  0  0  0
    4.3718  -19.2510   14.8151 H   0  0  0  0  0  0  0  0  0  0  0  0
    3.7737  -21.7153   15.0772 H   0  0  0  0  0  0  0  0  0  0  0  0
    1.1157  -23.4739   15.4958 H   0  0  0  0  0  0  0  0  0  0  0  0
    2.6259  -24.3529   15.8294 H   0  0  0  0  0  0  0  0  0  0  0  0
   -5.4804  -26.1852   18.5127 H   0  0  0  0  0  0  0  0  0  0  0  0
  1  2  1  0
  2  3  2  0
  3  4  1  0
  4  5  2  0
  5  6  1  0
  6  7  2  0
  7  8  1  0
  8  9  1  0
  9 10  1  0
 10 11  1  0
 11 12  1  0
 12 13  1  0
 13 14  1  0
 14 15  2  0
 15 16  1  0
 16 17  2  0
 17 18  1  0
 13 19  1  0
  7 20  1  0
 20 21  1  0
 21 22  2  0
 22  2  1  0
 21  5  1  0
 11  8  1  0
 18 14  1  0
 19 11  1  0
  3 23  1  0
  4 24  1  0
  9 25  1  0
  9 26  1  0
 10 27  1  0
 10 28  1  0
 12 29  1  0
 12 30  1  0
 13 31  1  0
 16 32  1  0
 17 33  1  0
 18 34  1  0
 19 35  1  0
 19 36  1  0
 22 37  1  0
M  END
>  <Energy>  (1310) 
50.971891262967382

>  <compound_id>  (1310) 
32767

>  <target_id>  (1310) 
1

>  <reference_id>  (1310) 
68

>  <inspiration_ids>  (1310) 
[68, 80]

>  <energy_score>  (1310) 
-69.76594295155746

>  <distance_score>  (1310) 
15.342128857165283

>  <path>  (1310) 
/opt/xchem-fragalysis-2/maxwin/BulkDock/SCRATCH/511021/C32767-P68/C32767-P68.minimised.mol

>  <scratch_subdir>  (1310) 
/opt/xchem-fragalysis-2/maxwin/BulkDock/SCRATCH/511021/C32767-P68

>  <fragmenstein_runtime>  (1310) 
12.318917036056519

>  <fragmenstein_outcome>  (1310) 
too moved

>  <fragmenstein_mode>  (1310) 
expansion

>  <fragmenstein_error>  (1310) 


$$$$
C32767-P80
     RDKit          3D

 37 41  0  0  0  0  0  0  0  0999 V2000
   -6.1331  -30.1953   20.8258 F   0  0  0  0  0  0  0  0  0  0  0  0
   -4.8826  -29.9070   20.4329 C   0  0  0  0  0  0  0  0  0  0  0  0
   -3.8507  -30.7493   20.8116 C   0  0  0  0  0  0  0  0  0  0  0  0
   -2.5358  -30.4583   20.4134 C   0  0  0  0  0  0  0  0  0  0  0  0
   -2.2509  -29.3047   19.6320 C   0  0  0  0  0  0  0  0  0  0  0  0
   -0.9983  -28.8922   19.1608 N   0  0  0  0  0  0  0  0  0  0  0  0
   -1.0313  -27.7636   18.4497 C   0  0  0  0  0  0  0  0  0  0  0  0
    0.0883  -27.2450   17.7756 N   0  0  0  0  0  0  0  0  0  0  0  0
    1.3996  -27.7656   18.1575 C   0  0  0  0  0  0  0  0  0  0  0  0
    1.7741  -26.3303   18.5544 C   0  0  0  0  0  0  0  0  0  0  0  0
    0.7096  -25.9372   17.5340 C   0  0  0  0  0  0  0  0  0  0  0  0
    0.1872  -24.5262   17.6581 C   0  0  0  0  0  0  0  0  0  0  0  0
    0.7596  -24.1503   16.2418 C   0  0  0  0  0  0  0  0  0  0  0  0
    1.7819  -22.8413   15.9814 C   0  0  0  0  0  0  0  0  0  0  0  0
    2.0097  -22.3423   14.7710 N   0  0  0  0  0  0  0  0  0  0  0  0
    2.6257  -21.1183   14.9402 C   0  0  0  0  0  0  0  0  0  0  0  0
    2.8263  -20.8845   16.2710 C   0  0  0  0  0  0  0  0  0  0  0  0
    2.3867  -22.0188   16.9077 N   0  0  0  0  0  0  0  0  0  0  0  0
    1.3426  -25.5921   16.1587 C   0  0  0  0  0  0  0  0  0  0  0  0
   -2.6542  -27.1465   18.3421 S   0  0  0  0  0  0  0  0  0  0  0  0
   -3.3061  -28.4722   19.2713 C   0  0  0  0  0  0  0  0  0  0  0  0
   -4.6386  -28.7627   19.6603 C   0  0  0  0  0  0  0  0  0  0  0  0
   -4.0675  -31.6264   21.4160 H   0  0  0  0  0  0  0  0  0  0  0  0
   -1.7202  -31.1149   20.7014 H   0  0  0  0  0  0  0  0  0  0  0  0
    1.9328  -28.1784   17.2935 H   0  0  0  0  0  0  0  0  0  0  0  0
    1.4238  -28.4849   18.9800 H   0  0  0  0  0  0  0  0  0  0  0  0
    2.8099  -26.0422   18.3566 H   0  0  0  0  0  0  0  0  0  0  0  0
    1.5309  -26.0765   19.5936 H   0  0  0  0  0  0  0  0  0  0  0  0
   -0.9013  -24.4476   17.7178 H   0  0  0  0  0  0  0  0  0  0  0  0
    0.6325  -23.9841   18.4915 H   0  0  0  0  0  0  0  0  0  0  0  0
   -0.0663  -24.0249   15.5249 H   0  0  0  0  0  0  0  0  0  0  0  0
    2.8359  -20.4748   14.0964 H   0  0  0  0  0  0  0  0  0  0  0  0
    3.1866  -20.0438   16.8231 H   0  0  0  0  0  0  0  0  0  0  0  0
    2.3991  -22.1859   17.9087 H   0  0  0  0  0  0  0  0  0  0  0  0
    2.4363  -25.6315   16.1105 H   0  0  0  0  0  0  0  0  0  0  0  0
    0.9461  -26.1739   15.3189 H   0  0  0  0  0  0  0  0  0  0  0  0
   -5.4611  -28.1133   19.3811 H   0  0  0  0  0  0  0  0  0  0  0  0
  1  2  1  0
  2  3  2  0
  3  4  1  0
  4  5  2  0
  5  6  1  0
  6  7  2  0
  7  8  1  0
  8  9  1  0
  9 10  1  0
 10 11  1  0
 11 12  1  0
 12 13  1  0
 13 14  1  0
 14 15  2  0
 15 16  1  0
 16 17  2  0
 17 18  1  0
 13 19  1  0
  7 20  1  0
 20 21  1  0
 21 22  2  0
 22  2  1  0
 21  5  1  0
 11  8  1  0
 18 14  1  0
 19 11  1  0
  3 23  1  0
  4 24  1  0
  9 25  1  0
  9 26  1  0
 10 27  1  0
 10 28  1  0
 12 29  1  0
 12 30  1  0
 13 31  1  0
 16 32  1  0
 17 33  1  0
 18 34  1  0
 19 35  1  0
 19 36  1  0
 22 37  1  0
M  END
>  <Energy>  (1311) 
48.528009504259273

>  <compound_id>  (1311) 
32767

>  <target_id>  (1311) 
1

>  <reference_id>  (1311) 
80

>  <inspiration_ids>  (1311) 
[68, 80]

>  <energy_score>  (1311) 
-72.20982471026537

>  <distance_score>  (1311) 
15.556435654010746

>  <path>  (1311) 
/opt/xchem-fragalysis-2/maxwin/BulkDock/SCRATCH/511021/C32767-P80/C32767-P80.minimised.mol

>  <scratch_subdir>  (1311) 
/opt/xchem-fragalysis-2/maxwin/BulkDock/SCRATCH/511021/C32767-P80

>  <fragmenstein_runtime>  (1311) 
10.894838333129883

>  <fragmenstein_outcome>  (1311) 
too moved

>  <fragmenstein_mode>  (1311) 
expansion

>  <fragmenstein_error>  (1311) 


$$$$
C32768-P68
     RDKit          3D

 40 44  0  0  0  0  0  0  0  0999 V2000
   -5.3125  -26.3333   17.5346 C   0  0  0  0  0  0  0  0  0  0  0  0
   -4.0408  -26.9812   18.0053 C   0  0  0  0  0  0  0  0  0  0  0  0
   -4.1217  -28.1850   18.7347 C   0  0  0  0  0  0  0  0  0  0  0  0
   -2.9774  -28.8062   19.2184 C   0  0  0  0  0  0  0  0  0  0  0  0
   -1.7139  -28.2687   18.9661 C   0  0  0  0  0  0  0  0  0  0  0  0
   -1.5887  -27.0513   18.2599 C   0  0  0  0  0  0  0  0  0  0  0  0
   -0.3927  -26.3743   17.9826 N   0  0  0  0  0  0  0  0  0  0  0  0
   -0.5916  -25.1367   17.5334 C   0  0  0  0  0  0  0  0  0  0  0  0
    0.2615  -24.0237   17.7679 N   0  0  0  0  0  0  0  0  0  0  0  0
    1.1765  -24.3637   18.8949 C   0  0  0  0  0  0  0  0  0  0  0  0
    2.2814  -24.5373   17.8161 C   0  0  0  0  0  0  0  0  0  0  0  0
    1.4873  -23.4427   17.1423 C   0  0  0  0  0  0  0  0  0  0  0  0
    1.9316  -22.9673   15.7450 C   0  0  0  0  0  0  0  0  0  0  0  0
    2.9853  -22.0160   16.4754 C   0  0  0  0  0  0  0  0  0  0  0  0
    3.5460  -20.5537   15.9433 C   0  0  0  0  0  0  0  0  0  0  0  0
    4.8529  -20.3122   15.8205 N   0  0  0  0  0  0  0  0  0  0  0  0
    4.9900  -18.9726   15.5341 C   0  0  0  0  0  0  0  0  0  0  0  0
    3.7647  -18.3691   15.5332 C   0  0  0  0  0  0  0  0  0  0  0  0
    2.8468  -19.3872   15.6988 N   0  0  0  0  0  0  0  0  0  0  0  0
    1.9417  -22.0021   17.6318 C   0  0  0  0  0  0  0  0  0  0  0  0
   -2.2621  -24.9188   17.0698 S   0  0  0  0  0  0  0  0  0  0  0  0
   -2.7461  -26.4192   17.8132 C   0  0  0  0  0  0  0  0  0  0  0  0
   -6.0044  -27.0869   17.1440 H   0  0  0  0  0  0  0  0  0  0  0  0
   -5.7926  -25.8098   18.3673 H   0  0  0  0  0  0  0  0  0  0  0  0
   -5.1288  -25.6150   16.7306 H   0  0  0  0  0  0  0  0  0  0  0  0
   -5.0903  -28.6504   18.9157 H   0  0  0  0  0  0  0  0  0  0  0  0
   -3.0523  -29.7276   19.7815 H   0  0  0  0  0  0  0  0  0  0  0  0
   -0.8203  -28.7658   19.3285 H   0  0  0  0  0  0  0  0  0  0  0  0
    0.9547  -25.2528   19.4924 H   0  0  0  0  0  0  0  0  0  0  0  0
    1.2189  -23.5175   19.5907 H   0  0  0  0  0  0  0  0  0  0  0  0
    3.3137  -24.3210   18.0887 H   0  0  0  0  0  0  0  0  0  0  0  0
    2.2750  -25.5019   17.2932 H   0  0  0  0  0  0  0  0  0  0  0  0
    2.3779  -23.7353   15.1062 H   0  0  0  0  0  0  0  0  0  0  0  0
    1.2025  -22.4167   15.1563 H   0  0  0  0  0  0  0  0  0  0  0  0
    3.8875  -22.5852   16.7485 H   0  0  0  0  0  0  0  0  0  0  0  0
    5.9587  -18.5219   15.3733 H   0  0  0  0  0  0  0  0  0  0  0  0
    3.4538  -17.3502   15.3811 H   0  0  0  0  0  0  0  0  0  0  0  0
    1.8330  -19.2859   15.6617 H   0  0  0  0  0  0  0  0  0  0  0  0
    2.3785  -21.9137   18.6287 H   0  0  0  0  0  0  0  0  0  0  0  0
    1.1795  -21.2277   17.5303 H   0  0  0  0  0  0  0  0  0  0  0  0
  1  2  1  0
  2  3  2  0
  3  4  1  0
  4  5  2  0
  5  6  1  0
  6  7  1  0
  7  8  2  0
  8  9  1  0
  9 10  1  0
 10 11  1  0
 11 12  1  0
 12 13  1  0
 13 14  1  0
 14 15  1  0
 15 16  2  0
 16 17  1  0
 17 18  2  0
 18 19  1  0
 14 20  1  0
  8 21  1  0
 21 22  1  0
 22  2  1  0
 22  6  2  0
 12  9  1  0
 19 15  1  0
 20 12  1  0
  1 23  1  0
  1 24  1  0
  1 25  1  0
  3 26  1  0
  4 27  1  0
  5 28  1  0
 10 29  1  0
 10 30  1  0
 11 31  1  0
 11 32  1  0
 13 33  1  0
 13 34  1  0
 14 35  1  0
 17 36  1  0
 18 37  1  0
 19 38  1  0
 20 39  1  0
 20 40  1  0
M  END
>  <Energy>  (1312) 
82.604494881787531

>  <compound_id>  (1312) 
32768

>  <target_id>  (1312) 
1

>  <reference_id>  (1312) 
68

>  <inspiration_ids>  (1312) 
[68, 80]

>  <energy_score>  (1312) 
4.869338541658863

>  <distance_score>  (1312) 
15.266542461128903

>  <path>  (1312) 
/opt/xchem-fragalysis-2/maxwin/BulkDock/SCRATCH/511021/C32768-P68/C32768-P68.minimised.mol

>  <scratch_subdir>  (1312) 
/opt/xchem-fragalysis-2/maxwin/BulkDock/SCRATCH/511021/C32768-P68

>  <fragmenstein_runtime>  (1312) 
15.842326164245605

>  <fragmenstein_outcome>  (1312) 
too moved

>  <fragmenstein_mode>  (1312) 
expansion

>  <fragmenstein_error>  (1312) 


$$$$
C32768-P80
     RDKit          3D

 40 44  0  0  0  0  0  0  0  0999 V2000
   -1.7052  -30.9766   21.0746 C   0  0  0  0  0  0  0  0  0  0  0  0
   -2.4523  -29.8859   20.3572 C   0  0  0  0  0  0  0  0  0  0  0  0
   -3.8614  -29.8691   20.4432 C   0  0  0  0  0  0  0  0  0  0  0  0
   -4.6079  -28.8915   19.8011 C   0  0  0  0  0  0  0  0  0  0  0  0
   -3.9619  -27.9058   19.0403 C   0  0  0  0  0  0  0  0  0  0  0  0
   -2.5486  -27.8872   18.9059 C   0  0  0  0  0  0  0  0  0  0  0  0
   -1.7846  -26.9716   18.1371 N   0  0  0  0  0  0  0  0  0  0  0  0
   -0.4875  -27.2339   18.1850 C   0  0  0  0  0  0  0  0  0  0  0  0
    0.5561  -26.7424   17.3701 N   0  0  0  0  0  0  0  0  0  0  0  0
    0.5280  -27.3713   16.0309 C   0  0  0  0  0  0  0  0  0  0  0  0
    0.0431  -26.0211   15.4715 C   0  0  0  0  0  0  0  0  0  0  0  0
    0.7834  -25.4684   16.6722 C   0  0  0  0  0  0  0  0  0  0  0  0
    2.2481  -25.0123   16.3090 C   0  0  0  0  0  0  0  0  0  0  0  0
    1.6240  -23.5939   16.0071 C   0  0  0  0  0  0  0  0  0  0  0  0
    2.6134  -22.2484   16.0481 C   0  0  0  0  0  0  0  0  0  0  0  0
    3.9405  -22.3029   16.0063 N   0  0  0  0  0  0  0  0  0  0  0  0
    4.3821  -21.0523   15.6329 C   0  0  0  0  0  0  0  0  0  0  0  0
    3.3276  -20.1976   15.4627 C   0  0  0  0  0  0  0  0  0  0  0  0
    2.2118  -20.9473   15.7553 N   0  0  0  0  0  0  0  0  0  0  0  0
    0.5637  -24.0276   17.1156 C   0  0  0  0  0  0  0  0  0  0  0  0
   -0.1457  -28.6067   19.2299 S   0  0  0  0  0  0  0  0  0  0  0  0
   -1.8237  -28.8769   19.5690 C   0  0  0  0  0  0  0  0  0  0  0  0
   -2.0866  -31.0901   22.0950 H   0  0  0  0  0  0  0  0  0  0  0  0
   -1.8311  -31.9243   20.5417 H   0  0  0  0  0  0  0  0  0  0  0  0
   -0.6358  -30.7625   21.1497 H   0  0  0  0  0  0  0  0  0  0  0  0
   -4.3788  -30.6264   21.0321 H   0  0  0  0  0  0  0  0  0  0  0  0
   -5.6927  -28.8882   19.8892 H   0  0  0  0  0  0  0  0  0  0  0  0
   -4.5441  -27.1405   18.5355 H   0  0  0  0  0  0  0  0  0  0  0  0
   -0.1690  -28.2067   15.9105 H   0  0  0  0  0  0  0  0  0  0  0  0
    1.5304  -27.6915   15.7226 H   0  0  0  0  0  0  0  0  0  0  0  0
   -1.0431  -25.8769   15.4922 H   0  0  0  0  0  0  0  0  0  0  0  0
    0.4139  -25.7770   14.4727 H   0  0  0  0  0  0  0  0  0  0  0  0
    2.7235  -25.4966   15.4508 H   0  0  0  0  0  0  0  0  0  0  0  0
    2.9473  -25.0346   17.1533 H   0  0  0  0  0  0  0  0  0  0  0  0
    1.1587  -23.5648   15.0092 H   0  0  0  0  0  0  0  0  0  0  0  0
    5.4342  -20.8624   15.4801 H   0  0  0  0  0  0  0  0  0  0  0  0
    3.2422  -19.1695   15.1465 H   0  0  0  0  0  0  0  0  0  0  0  0
    1.2583  -20.6293   15.6186 H   0  0  0  0  0  0  0  0  0  0  0  0
    0.8678  -23.8555   18.1492 H   0  0  0  0  0  0  0  0  0  0  0  0
   -0.4532  -23.6676   16.9743 H   0  0  0  0  0  0  0  0  0  0  0  0
  1  2  1  0
  2  3  2  0
  3  4  1  0
  4  5  2  0
  5  6  1  0
  6  7  1  0
  7  8  2  0
  8  9  1  0
  9 10  1  0
 10 11  1  0
 11 12  1  0
 12 13  1  0
 13 14  1  0
 14 15  1  0
 15 16  2  0
 16 17  1  0
 17 18  2  0
 18 19  1  0
 14 20  1  0
  8 21  1  0
 21 22  1  0
 22  2  1  0
 22  6  2  0
 12  9  1  0
 19 15  1  0
 20 12  1  0
  1 23  1  0
  1 24  1  0
  1 25  1  0
  3 26  1  0
  4 27  1  0
  5 28  1  0
 10 29  1  0
 10 30  1  0
 11 31  1  0
 11 32  1  0
 13 33  1  0
 13 34  1  0
 14 35  1  0
 17 36  1  0
 18 37  1  0
 19 38  1  0
 20 39  1  0
 20 40  1  0
M  END
>  <Energy>  (1313) 
65.117312625046239

>  <compound_id>  (1313) 
32768

>  <target_id>  (1313) 
1

>  <reference_id>  (1313) 
80

>  <inspiration_ids>  (1313) 
[68, 80]

>  <energy_score>  (1313) 
-12.617843715081108

>  <distance_score>  (1313) 
15.529876318790281

>  <path>  (1313) 
/opt/xchem-fragalysis-2/maxwin/BulkDock/SCRATCH/511021/C32768-P80/C32768-P80.minimised.mol

>  <scratch_subdir>  (1313) 
/opt/xchem-fragalysis-2/maxwin/BulkDock/SCRATCH/511021/C32768-P80

>  <fragmenstein_runtime>  (1313) 
15.39614462852478

>  <fragmenstein_outcome>  (1313) 
too moved

>  <fragmenstein_mode>  (1313) 
expansion

>  <fragmenstein_error>  (1313) 


$$$$
C32769-P68
     RDKit          3D

 37 41  0  0  0  0  0  0  0  0999 V2000
   -4.7119  -28.1873   18.3890 Cl  0  0  0  0  0  0  0  0  0  0  0  0
   -3.2348  -27.3125   18.5152 C   0  0  0  0  0  0  0  0  0  0  0  0
   -2.3702  -27.5672   19.5696 C   0  0  0  0  0  0  0  0  0  0  0  0
   -1.1682  -26.8500   19.6775 C   0  0  0  0  0  0  0  0  0  0  0  0
   -0.8540  -25.8690   18.7015 C   0  0  0  0  0  0  0  0  0  0  0  0
    0.5173  -24.7849   18.5824 S   0  0  0  0  0  0  0  0  0  0  0  0
   -0.0303  -24.1206   17.0624 C   0  0  0  0  0  0  0  0  0  0  0  0
    0.7410  -23.3076   16.1688 N   0  0  0  0  0  0  0  0  0  0  0  0
    1.6123  -24.1171   15.2933 C   0  0  0  0  0  0  0  0  0  0  0  0
    2.7988  -23.6754   16.2093 C   0  0  0  0  0  0  0  0  0  0  0  0
    1.9375  -22.4301   16.3397 C   0  0  0  0  0  0  0  0  0  0  0  0
    2.4124  -21.4222   15.2046 C   0  0  0  0  0  0  0  0  0  0  0  0
    3.2001  -20.6500   16.3101 C   0  0  0  0  0  0  0  0  0  0  0  0
    3.4403  -19.0224   16.0945 C   0  0  0  0  0  0  0  0  0  0  0  0
    3.2190  -18.0571   16.9729 N   0  0  0  0  0  0  0  0  0  0  0  0
    3.8209  -16.9133   16.4842 C   0  0  0  0  0  0  0  0  0  0  0  0
    4.4421  -17.1726   15.2910 C   0  0  0  0  0  0  0  0  0  0  0  0
    4.1285  -18.4836   15.0186 N   0  0  0  0  0  0  0  0  0  0  0  0
    2.1799  -21.2981   17.3357 C   0  0  0  0  0  0  0  0  0  0  0  0
   -1.2314  -24.6127   16.7459 N   0  0  0  0  0  0  0  0  0  0  0  0
   -1.7008  -25.6086   17.6325 C   0  0  0  0  0  0  0  0  0  0  0  0
   -2.9146  -26.3461   17.5478 C   0  0  0  0  0  0  0  0  0  0  0  0
   -2.6107  -28.3179   20.3176 H   0  0  0  0  0  0  0  0  0  0  0  0
   -0.4933  -27.0269   20.5104 H   0  0  0  0  0  0  0  0  0  0  0  0
    1.6161  -23.7283   14.2660 H   0  0  0  0  0  0  0  0  0  0  0  0
    1.3829  -25.1786   15.2248 H   0  0  0  0  0  0  0  0  0  0  0  0
    3.7657  -23.5917   15.7046 H   0  0  0  0  0  0  0  0  0  0  0  0
    2.9493  -24.2550   17.1242 H   0  0  0  0  0  0  0  0  0  0  0  0
    1.6538  -20.8567   14.6723 H   0  0  0  0  0  0  0  0  0  0  0  0
    3.0682  -21.8280   14.4234 H   0  0  0  0  0  0  0  0  0  0  0  0
    4.2024  -21.0852   16.4460 H   0  0  0  0  0  0  0  0  0  0  0  0
    3.7719  -15.9843   17.0362 H   0  0  0  0  0  0  0  0  0  0  0  0
    4.9978  -16.5610   14.5970 H   0  0  0  0  0  0  0  0  0  0  0  0
    4.3586  -18.9880   14.1759 H   0  0  0  0  0  0  0  0  0  0  0  0
    2.6063  -21.6218   18.2869 H   0  0  0  0  0  0  0  0  0  0  0  0
    1.3098  -20.6721   17.5509 H   0  0  0  0  0  0  0  0  0  0  0  0
   -3.5832  -26.1520   16.7152 H   0  0  0  0  0  0  0  0  0  0  0  0
  1  2  1  0
  2  3  2  0
  3  4  1  0
  4  5  2  0
  5  6  1  0
  6  7  1  0
  7  8  1  0
  8  9  1  0
  9 10  1  0
 10 11  1  0
 11 12  1  0
 12 13  1  0
 13 14  1  0
 14 15  2  0
 15 16  1  0
 16 17  2  0
 17 18  1  0
 13 19  1  0
  7 20  2  0
 20 21  1  0
 21 22  2  0
 22  2  1  0
 21  5  1  0
 11  8  1  0
 18 14  1  0
 19 11  1  0
  3 23  1  0
  4 24  1  0
  9 25  1  0
  9 26  1  0
 10 27  1  0
 10 28  1  0
 12 29  1  0
 12 30  1  0
 13 31  1  0
 16 32  1  0
 17 33  1  0
 18 34  1  0
 19 35  1  0
 19 36  1  0
 22 37  1  0
M  END
>  <Energy>  (1314) 
61.525783497484554

>  <compound_id>  (1314) 
32769

>  <target_id>  (1314) 
1

>  <reference_id>  (1314) 
68

>  <inspiration_ids>  (1314) 
[68, 80]

>  <energy_score>  (1314) 
-61.94043477623882

>  <distance_score>  (1314) 
15.352018176512946

>  <path>  (1314) 
/opt/xchem-fragalysis-2/maxwin/BulkDock/SCRATCH/511021/C32769-P68/C32769-P68.minimised.mol

>  <scratch_subdir>  (1314) 
/opt/xchem-fragalysis-2/maxwin/BulkDock/SCRATCH/511021/C32769-P68

>  <fragmenstein_runtime>  (1314) 
11.44300651550293

>  <fragmenstein_outcome>  (1314) 
too moved

>  <fragmenstein_mode>  (1314) 
expansion

>  <fragmenstein_error>  (1314) 


$$$$
C32769-P80
     RDKit          3D

 37 41  0  0  0  0  0  0  0  0999 V2000
   -2.2803  -29.8355   20.1415 Cl  0  0  0  0  0  0  0  0  0  0  0  0
   -1.9858  -28.4298   19.1956 C   0  0  0  0  0  0  0  0  0  0  0  0
   -3.0512  -27.6555   18.7541 C   0  0  0  0  0  0  0  0  0  0  0  0
   -2.8126  -26.5095   17.9767 C   0  0  0  0  0  0  0  0  0  0  0  0
   -1.4770  -26.1569   17.6560 C   0  0  0  0  0  0  0  0  0  0  0  0
   -0.8507  -24.8109   16.7388 S   0  0  0  0  0  0  0  0  0  0  0  0
    0.7990  -25.3157   16.9500 C   0  0  0  0  0  0  0  0  0  0  0  0
    1.9227  -24.7195   16.3699 N   0  0  0  0  0  0  0  0  0  0  0  0
    3.2291  -25.2940   16.5892 C   0  0  0  0  0  0  0  0  0  0  0  0
    3.7795  -24.2984   15.5730 C   0  0  0  0  0  0  0  0  0  0  0  0
    2.5103  -23.4748   15.8669 C   0  0  0  0  0  0  0  0  0  0  0  0
    2.8467  -22.2143   16.6657 C   0  0  0  0  0  0  0  0  0  0  0  0
    2.6296  -21.3210   15.4222 C   0  0  0  0  0  0  0  0  0  0  0  0
    3.8890  -20.3720   14.9122 C   0  0  0  0  0  0  0  0  0  0  0  0
    5.1872  -20.6229   14.9945 N   0  0  0  0  0  0  0  0  0  0  0  0
    5.8398  -19.5251   14.4534 C   0  0  0  0  0  0  0  0  0  0  0  0
    4.9432  -18.5385   14.1380 C   0  0  0  0  0  0  0  0  0  0  0  0
    3.7168  -19.0857   14.4290 N   0  0  0  0  0  0  0  0  0  0  0  0
    2.1465  -22.6128   14.6550 C   0  0  0  0  0  0  0  0  0  0  0  0
    0.8507  -26.4512   17.6564 N   0  0  0  0  0  0  0  0  0  0  0  0
   -0.4015  -26.9260   18.0838 C   0  0  0  0  0  0  0  0  0  0  0  0
   -0.6671  -28.0813   18.8684 C   0  0  0  0  0  0  0  0  0  0  0  0
   -4.0721  -27.9288   19.0116 H   0  0  0  0  0  0  0  0  0  0  0  0
   -3.6416  -25.8989   17.6320 H   0  0  0  0  0  0  0  0  0  0  0  0
    3.3075  -26.3430   16.2900 H   0  0  0  0  0  0  0  0  0  0  0  0
    3.5796  -25.1656   17.6170 H   0  0  0  0  0  0  0  0  0  0  0  0
    4.7480  -23.8596   15.8301 H   0  0  0  0  0  0  0  0  0  0  0  0
    3.8441  -24.7082   14.5572 H   0  0  0  0  0  0  0  0  0  0  0  0
    2.1174  -21.9625   17.4333 H   0  0  0  0  0  0  0  0  0  0  0  0
    3.8534  -22.1527   17.0897 H   0  0  0  0  0  0  0  0  0  0  0  0
    1.7936  -20.6327   15.5924 H   0  0  0  0  0  0  0  0  0  0  0  0
    6.9170  -19.5107   14.3514 H   0  0  0  0  0  0  0  0  0  0  0  0
    5.0416  -17.5426   13.7313 H   0  0  0  0  0  0  0  0  0  0  0  0
    2.8188  -18.6197   14.3307 H   0  0  0  0  0  0  0  0  0  0  0  0
    2.6879  -22.8174   13.7258 H   0  0  0  0  0  0  0  0  0  0  0  0
    1.0744  -22.6032   14.4284 H   0  0  0  0  0  0  0  0  0  0  0  0
    0.1693  -28.6840   19.2077 H   0  0  0  0  0  0  0  0  0  0  0  0
  1  2  1  0
  2  3  2  0
  3  4  1  0
  4  5  2  0
  5  6  1  0
  6  7  1  0
  7  8  1  0
  8  9  1  0
  9 10  1  0
 10 11  1  0
 11 12  1  0
 12 13  1  0
 13 14  1  0
 14 15  2  0
 15 16  1  0
 16 17  2  0
 17 18  1  0
 13 19  1  0
  7 20  2  0
 20 21  1  0
 21 22  2  0
 22  2  1  0
 21  5  1  0
 11  8  1  0
 18 14  1  0
 19 11  1  0
  3 23  1  0
  4 24  1  0
  9 25  1  0
  9 26  1  0
 10 27  1  0
 10 28  1  0
 12 29  1  0
 12 30  1  0
 13 31  1  0
 16 32  1  0
 17 33  1  0
 18 34  1  0
 19 35  1  0
 19 36  1  0
 22 37  1  0
M  END
>  <Energy>  (1315) 
47.401180868963479

>  <compound_id>  (1315) 
32769

>  <target_id>  (1315) 
1

>  <reference_id>  (1315) 
80

>  <inspiration_ids>  (1315) 
[68, 80]

>  <energy_score>  (1315) 
-76.06503740475836

>  <distance_score>  (1315) 
15.684630691184825

>  <path>  (1315) 
/opt/xchem-fragalysis-2/maxwin/BulkDock/SCRATCH/511021/C32769-P80/C32769-P80.minimised.mol

>  <scratch_subdir>  (1315) 
/opt/xchem-fragalysis-2/maxwin/BulkDock/SCRATCH/511021/C32769-P80

>  <fragmenstein_runtime>  (1315) 
7.960624694824219

>  <fragmenstein_outcome>  (1315) 
too moved

>  <fragmenstein_mode>  (1315) 
expansion

>  <fragmenstein_error>  (1315) 


$$$$
C12520-P68
     RDKit          3D

 37 39  0  0  0  0  0  0  0  0999 V2000
    3.3264  -23.6844   15.8884 C   0  0  0  0  0  0  0  0  0  0  0  0
    2.3824  -23.9533   16.9987 N   0  0  0  0  0  0  0  0  0  0  0  0
    3.1592  -22.6951   17.6457 C   0  0  0  0  0  0  0  0  0  0  0  0
    3.3514  -21.2832   16.8956 C   0  0  0  0  0  0  0  0  0  0  0  0
    2.5049  -20.1928   16.8622 C   0  0  0  0  0  0  0  0  0  0  0  0
    3.0698  -19.2592   16.0254 N   0  0  0  0  0  0  0  0  0  0  0  0
    4.3027  -19.7305   15.6782 C   0  0  0  0  0  0  0  0  0  0  0  0
    4.5240  -20.9270   16.1985 N   0  0  0  0  0  0  0  0  0  0  0  0
    2.3240  -25.0730   17.9580 C   0  0  0  0  0  0  0  0  0  0  0  0
    3.0858  -25.9991   18.1307 O   0  0  0  0  0  0  0  0  0  0  0  0
    1.0010  -25.1439   18.8355 C   0  0  0  0  0  0  0  0  0  0  0  0
    0.0333  -26.4172   18.6005 C   0  0  0  0  0  0  0  0  0  0  0  0
   -0.4672  -27.3648   19.7199 C   0  0  0  0  0  0  0  0  0  0  0  0
   -1.6217  -27.1008   20.4747 C   0  0  0  0  0  0  0  0  0  0  0  0
   -2.1049  -27.9953   21.4582 C   0  0  0  0  0  0  0  0  0  0  0  0
   -1.4553  -29.2256   21.6789 C   0  0  0  0  0  0  0  0  0  0  0  0
   -1.7717  -30.1723   22.6458 N   0  0  0  0  0  0  0  0  0  0  0  0
   -0.9698  -31.2058   22.5143 C   0  0  0  0  0  0  0  0  0  0  0  0
    0.2057  -31.1119   21.2769 S   0  0  0  0  0  0  0  0  0  0  0  0
   -0.3585  -29.5317   20.8718 C   0  0  0  0  0  0  0  0  0  0  0  0
    0.1470  -28.6195   19.9097 C   0  0  0  0  0  0  0  0  0  0  0  0
    4.4005  -23.7276   16.1230 H   0  0  0  0  0  0  0  0  0  0  0  0
    2.9964  -22.8836   15.2186 H   0  0  0  0  0  0  0  0  0  0  0  0
    3.2157  -24.5787   15.2558 H   0  0  0  0  0  0  0  0  0  0  0  0
    4.1250  -23.0438   18.0372 H   0  0  0  0  0  0  0  0  0  0  0  0
    2.5417  -22.4526   18.5214 H   0  0  0  0  0  0  0  0  0  0  0  0
    1.5303  -20.0412   17.2940 H   0  0  0  0  0  0  0  0  0  0  0  0
    2.5939  -18.4412   15.6545 H   0  0  0  0  0  0  0  0  0  0  0  0
    4.9673  -19.1834   15.0246 H   0  0  0  0  0  0  0  0  0  0  0  0
    1.3053  -25.1317   19.8863 H   0  0  0  0  0  0  0  0  0  0  0  0
    0.4391  -24.2267   18.6325 H   0  0  0  0  0  0  0  0  0  0  0  0
   -0.8858  -26.0295   18.1442 H   0  0  0  0  0  0  0  0  0  0  0  0
    0.4939  -27.0430   17.8248 H   0  0  0  0  0  0  0  0  0  0  0  0
   -2.1891  -26.1897   20.3015 H   0  0  0  0  0  0  0  0  0  0  0  0
   -2.9743  -27.7313   22.0522 H   0  0  0  0  0  0  0  0  0  0  0  0
   -1.0467  -32.0813   23.1435 H   0  0  0  0  0  0  0  0  0  0  0  0
    1.0112  -28.8995   19.3098 H   0  0  0  0  0  0  0  0  0  0  0  0
  1  2  1  0
  2  3  1  0
  3  4  1  0
  4  5  2  0
  5  6  1  0
  6  7  1  0
  7  8  2  0
  2  9  1  0
  9 10  2  0
  9 11  1  0
 11 12  1  0
 12 13  1  0
 13 14  2  0
 14 15  1  0
 15 16  2  0
 16 17  1  0
 17 18  2  0
 18 19  1  0
 19 20  1  0
 20 21  2  0
  8  4  1  0
 21 13  1  0
 20 16  1  0
  1 22  1  0
  1 23  1  0
  1 24  1  0
  3 25  1  0
  3 26  1  0
  5 27  1  0
  6 28  1  0
  7 29  1  0
 11 30  1  0
 11 31  1  0
 12 32  1  0
 12 33  1  0
 14 34  1  0
 15 35  1  0
 18 36  1  0
 21 37  1  0
M  END
>  <Energy>  (1316) 
118.41884024879901

>  <compound_id>  (1316) 
12520

>  <target_id>  (1316) 
1

>  <reference_id>  (1316) 
68

>  <inspiration_ids>  (1316) 
[68, 80]

>  <energy_score>  (1316) 
22.99357879832371

>  <distance_score>  (1316) 
15.391745382155994

>  <path>  (1316) 
/opt/xchem-fragalysis-2/maxwin/BulkDock/SCRATCH/511021/C12520-P68/C12520-P68.minimised.mol

>  <scratch_subdir>  (1316) 
/opt/xchem-fragalysis-2/maxwin/BulkDock/SCRATCH/511021/C12520-P68

>  <fragmenstein_runtime>  (1316) 
13.67232894897461

>  <fragmenstein_outcome>  (1316) 
too moved

>  <fragmenstein_mode>  (1316) 
expansion

>  <fragmenstein_error>  (1316) 


$$$$
C12520-P80
     RDKit          3D

 37 39  0  0  0  0  0  0  0  0999 V2000
   -4.1421  -21.9129   10.8278 C   0  0  0  0  0  0  0  0  0  0  0  0
   -4.0782  -22.5221   12.1675 N   0  0  0  0  0  0  0  0  0  0  0  0
   -3.9996  -20.9725   12.6068 C   0  0  0  0  0  0  0  0  0  0  0  0
   -3.1674  -19.7059   11.9195 C   0  0  0  0  0  0  0  0  0  0  0  0
   -3.6051  -18.3959   11.7104 C   0  0  0  0  0  0  0  0  0  0  0  0
   -2.5178  -17.6651   11.2820 N   0  0  0  0  0  0  0  0  0  0  0  0
   -1.4546  -18.5112   11.2404 C   0  0  0  0  0  0  0  0  0  0  0  0
   -1.8267  -19.7316   11.5591 N   0  0  0  0  0  0  0  0  0  0  0  0
   -5.1122  -23.2283   12.9523 C   0  0  0  0  0  0  0  0  0  0  0  0
   -6.2887  -23.3992   12.7233 O   0  0  0  0  0  0  0  0  0  0  0  0
   -4.5900  -23.9982   14.2775 C   0  0  0  0  0  0  0  0  0  0  0  0
   -5.6142  -25.1803   14.7726 C   0  0  0  0  0  0  0  0  0  0  0  0
   -5.3420  -26.2508   15.8749 C   0  0  0  0  0  0  0  0  0  0  0  0
   -4.8099  -25.9383   17.1283 C   0  0  0  0  0  0  0  0  0  0  0  0
   -4.6694  -26.9142   18.1521 C   0  0  0  0  0  0  0  0  0  0  0  0
   -5.0761  -28.2521   17.9528 C   0  0  0  0  0  0  0  0  0  0  0  0
   -5.0000  -29.2917   18.8751 N   0  0  0  0  0  0  0  0  0  0  0  0
   -5.5330  -30.3766   18.3611 C   0  0  0  0  0  0  0  0  0  0  0  0
   -6.0953  -30.2465   16.7447 S   0  0  0  0  0  0  0  0  0  0  0  0
   -5.6424  -28.5732   16.7175 C   0  0  0  0  0  0  0  0  0  0  0  0
   -5.7845  -27.5945   15.6885 C   0  0  0  0  0  0  0  0  0  0  0  0
   -4.9857  -21.2303   10.6446 H   0  0  0  0  0  0  0  0  0  0  0  0
   -4.4016  -22.7656   10.1821 H   0  0  0  0  0  0  0  0  0  0  0  0
   -3.1649  -21.6067   10.4415 H   0  0  0  0  0  0  0  0  0  0  0  0
   -5.0300  -20.6259   12.7887 H   0  0  0  0  0  0  0  0  0  0  0  0
   -3.5388  -21.1073   13.5852 H   0  0  0  0  0  0  0  0  0  0  0  0
   -4.5675  -17.9319   11.8688 H   0  0  0  0  0  0  0  0  0  0  0  0
   -2.4946  -16.6789   11.0679 H   0  0  0  0  0  0  0  0  0  0  0  0
   -0.4488  -18.2026   10.9857 H   0  0  0  0  0  0  0  0  0  0  0  0
   -4.4808  -23.2639   15.0803 H   0  0  0  0  0  0  0  0  0  0  0  0
   -3.6176  -24.4475   14.0538 H   0  0  0  0  0  0  0  0  0  0  0  0
   -6.5467  -24.6798   15.0677 H   0  0  0  0  0  0  0  0  0  0  0  0
   -5.8561  -25.7401   13.8583 H   0  0  0  0  0  0  0  0  0  0  0  0
   -4.5011  -24.9172   17.3465 H   0  0  0  0  0  0  0  0  0  0  0  0
   -4.2508  -26.6308   19.1142 H   0  0  0  0  0  0  0  0  0  0  0  0
   -5.6120  -31.2995   18.9207 H   0  0  0  0  0  0  0  0  0  0  0  0
   -6.2512  -27.8835   14.7487 H   0  0  0  0  0  0  0  0  0  0  0  0
  1  2  1  0
  2  3  1  0
  3  4  1  0
  4  5  2  0
  5  6  1  0
  6  7  1  0
  7  8  2  0
  2  9  1  0
  9 10  2  0
  9 11  1  0
 11 12  1  0
 12 13  1  0
 13 14  2  0
 14 15  1  0
 15 16  2  0
 16 17  1  0
 17 18  2  0
 18 19  1  0
 19 20  1  0
 20 21  2  0
  8  4  1  0
 21 13  1  0
 20 16  1  0
  1 22  1  0
  1 23  1  0
  1 24  1  0
  3 25  1  0
  3 26  1  0
  5 27  1  0
  6 28  1  0
  7 29  1  0
 11 30  1  0
 11 31  1  0
 12 32  1  0
 12 33  1  0
 14 34  1  0
 15 35  1  0
 18 36  1  0
 21 37  1  0
M  END
>  <Energy>  (1317) 
128.19972624127976

>  <compound_id>  (1317) 
12520

>  <target_id>  (1317) 
1

>  <reference_id>  (1317) 
80

>  <inspiration_ids>  (1317) 
[68, 80]

>  <energy_score>  (1317) 
32.774464790802995

>  <distance_score>  (1317) 
16.196841098074504

>  <path>  (1317) 
/opt/xchem-fragalysis-2/maxwin/BulkDock/SCRATCH/511021/C12520-P80/C12520-P80.minimised.mol

>  <scratch_subdir>  (1317) 
/opt/xchem-fragalysis-2/maxwin/BulkDock/SCRATCH/511021/C12520-P80

>  <fragmenstein_runtime>  (1317) 
14.122656106948853

>  <fragmenstein_outcome>  (1317) 
too moved

>  <fragmenstein_mode>  (1317) 
expansion

>  <fragmenstein_error>  (1317) 


$$$$
C32770-P68
     RDKit          3D

 36 39  0  0  0  0  0  0  0  0999 V2000
   -4.5070  -30.9269   16.9525 N   0  0  0  0  0  0  0  0  0  0  0  0
   -3.0966  -30.6266   16.6766 C   0  0  0  0  0  0  0  0  0  0  0  0
   -2.5494  -29.3646   17.2970 C   0  0  0  0  0  0  0  0  0  0  0  0
   -1.2702  -29.0437   17.2384 N   0  0  0  0  0  0  0  0  0  0  0  0
   -1.1048  -27.6784   17.4515 C   0  0  0  0  0  0  0  0  0  0  0  0
    0.0961  -26.9142   17.2678 C   0  0  0  0  0  0  0  0  0  0  0  0
    0.1776  -25.4826   17.3469 C   0  0  0  0  0  0  0  0  0  0  0  0
    1.5194  -24.6859   17.1106 C   0  0  0  0  0  0  0  0  0  0  0  0
    2.7173  -25.4129   17.2407 C   0  0  0  0  0  0  0  0  0  0  0  0
    3.9785  -24.8473   17.0238 C   0  0  0  0  0  0  0  0  0  0  0  0
    4.1204  -23.5020   16.6830 C   0  0  0  0  0  0  0  0  0  0  0  0
    3.0213  -22.6382   16.5569 C   0  0  0  0  0  0  0  0  0  0  0  0
    3.4176  -21.1809   16.2033 C   0  0  0  0  0  0  0  0  0  0  0  0
    4.6865  -20.7700   16.0305 N   0  0  0  0  0  0  0  0  0  0  0  0
    4.6686  -19.4423   15.6738 C   0  0  0  0  0  0  0  0  0  0  0  0
    3.3851  -18.9881   15.6770 C   0  0  0  0  0  0  0  0  0  0  0  0
    2.6005  -20.0863   15.9679 N   0  0  0  0  0  0  0  0  0  0  0  0
    1.7177  -23.2613   16.7804 C   0  0  0  0  0  0  0  0  0  0  0  0
   -1.0460  -24.8786   17.6524 C   0  0  0  0  0  0  0  0  0  0  0  0
   -2.2559  -25.5974   17.9066 C   0  0  0  0  0  0  0  0  0  0  0  0
   -2.2688  -26.9965   17.7859 C   0  0  0  0  0  0  0  0  0  0  0  0
   -3.5680  -28.1253   17.9261 S   0  0  0  0  0  0  0  0  0  0  0  0
   -4.7921  -31.7068   16.3648 H   0  0  0  0  0  0  0  0  0  0  0  0
   -5.0696  -30.1269   16.6676 H   0  0  0  0  0  0  0  0  0  0  0  0
   -2.4715  -31.4739   16.9712 H   0  0  0  0  0  0  0  0  0  0  0  0
   -2.9831  -30.5280   15.5896 H   0  0  0  0  0  0  0  0  0  0  0  0
    0.9667  -27.4977   16.9827 H   0  0  0  0  0  0  0  0  0  0  0  0
    2.7107  -26.4546   17.5521 H   0  0  0  0  0  0  0  0  0  0  0  0
    4.8663  -25.4642   17.1434 H   0  0  0  0  0  0  0  0  0  0  0  0
    5.1293  -23.1220   16.5273 H   0  0  0  0  0  0  0  0  0  0  0  0
    5.5734  -18.8996   15.4415 H   0  0  0  0  0  0  0  0  0  0  0  0
    2.9466  -18.0337   15.4387 H   0  0  0  0  0  0  0  0  0  0  0  0
    1.5864  -20.0928   15.9141 H   0  0  0  0  0  0  0  0  0  0  0  0
    0.8423  -22.6287   16.6976 H   0  0  0  0  0  0  0  0  0  0  0  0
   -1.0709  -23.7963   17.7132 H   0  0  0  0  0  0  0  0  0  0  0  0
   -3.1688  -25.0625   18.1502 H   0  0  0  0  0  0  0  0  0  0  0  0
  1  2  1  0
  2  3  1  0
  3  4  2  0
  4  5  1  0
  5  6  2  0
  6  7  1  0
  7  8  1  0
  8  9  2  0
  9 10  1  0
 10 11  2  0
 11 12  1  0
 12 13  1  0
 13 14  2  0
 14 15  1  0
 15 16  2  0
 16 17  1  0
 12 18  2  0
  7 19  2  0
 19 20  1  0
 20 21  2  0
 21 22  1  0
 22  3  1  0
 21  5  1  0
 18  8  1  0
 17 13  1  0
  1 23  1  0
  1 24  1  0
  2 25  1  0
  2 26  1  0
  6 27  1  0
  9 28  1  0
 10 29  1  0
 11 30  1  0
 15 31  1  0
 16 32  1  0
 17 33  1  0
 18 34  1  0
 19 35  1  0
 20 36  1  0
M  END
>  <Energy>  (1318) 
85.064753467186222

>  <compound_id>  (1318) 
32770

>  <target_id>  (1318) 
1

>  <reference_id>  (1318) 
68

>  <inspiration_ids>  (1318) 
[68, 80]

>  <energy_score>  (1318) 
-29.66891681249649

>  <distance_score>  (1318) 
16.168093218696274

>  <path>  (1318) 
/opt/xchem-fragalysis-2/maxwin/BulkDock/SCRATCH/511021/C32770-P68/C32770-P68.minimised.mol

>  <scratch_subdir>  (1318) 
/opt/xchem-fragalysis-2/maxwin/BulkDock/SCRATCH/511021/C32770-P68

>  <fragmenstein_runtime>  (1318) 
20.75335431098938

>  <fragmenstein_outcome>  (1318) 
too moved

>  <fragmenstein_mode>  (1318) 
expansion

>  <fragmenstein_error>  (1318) 


$$$$
C32770-P80
     RDKit          3D

 36 39  0  0  0  0  0  0  0  0999 V2000
   -3.8832  -31.1435   24.5416 N   0  0  0  0  0  0  0  0  0  0  0  0
   -3.5018  -30.7881   23.1687 C   0  0  0  0  0  0  0  0  0  0  0  0
   -3.6947  -29.3276   22.9406 C   0  0  0  0  0  0  0  0  0  0  0  0
   -2.7704  -28.4174   23.1548 N   0  0  0  0  0  0  0  0  0  0  0  0
   -3.2900  -27.1491   22.9354 C   0  0  0  0  0  0  0  0  0  0  0  0
   -2.5614  -25.9100   23.0716 C   0  0  0  0  0  0  0  0  0  0  0  0
   -3.0071  -24.3633   22.8239 C   0  0  0  0  0  0  0  0  0  0  0  0
   -1.8186  -22.3294   23.0040 C   0  0  0  0  0  0  0  0  0  0  0  0
   -0.6973  -22.1392   23.7687 C   0  0  0  0  0  0  0  0  0  0  0  0
    0.1522  -21.8406   22.9620 C   0  0  0  0  0  0  0  0  0  0  0  0
    0.4093  -20.5234   23.2541 C   0  0  0  0  0  0  0  0  0  0  0  0
   -0.4475  -19.4968   23.4791 C   0  0  0  0  0  0  0  0  0  0  0  0
    0.3496  -18.0204   24.6411 C   0  0  0  0  0  0  0  0  0  0  0  0
    1.9951  -17.2620   24.3658 N   0  0  0  0  0  0  0  0  0  0  0  0
    1.6883  -15.3378   23.5813 C   0  0  0  0  0  0  0  0  0  0  0  0
    0.2196  -14.5806   24.4060 C   0  0  0  0  0  0  0  0  0  0  0  0
   -0.8428  -16.1745   24.6702 N   0  0  0  0  0  0  0  0  0  0  0  0
   -1.8398  -20.6443   23.3333 C   0  0  0  0  0  0  0  0  0  0  0  0
   -4.5586  -24.6877   22.4360 C   0  0  0  0  0  0  0  0  0  0  0  0
   -5.2803  -25.9211   22.3103 C   0  0  0  0  0  0  0  0  0  0  0  0
   -4.6213  -27.1218   22.5504 C   0  0  0  0  0  0  0  0  0  0  0  0
   -5.2256  -28.7328   22.4427 S   0  0  0  0  0  0  0  0  0  0  0  0
   -4.0656  -32.1511   24.4997 H   0  0  0  0  0  0  0  0  0  0  0  0
   -4.8136  -30.7430   24.6936 H   0  0  0  0  0  0  0  0  0  0  0  0
   -2.4518  -31.0558   23.0110 H   0  0  0  0  0  0  0  0  0  0  0  0
   -4.0956  -31.3708   22.4548 H   0  0  0  0  0  0  0  0  0  0  0  0
   -1.5382  -26.1422   23.3850 H   0  0  0  0  0  0  0  0  0  0  0  0
   -0.1603  -22.8057   24.4633 H   0  0  0  0  0  0  0  0  0  0  0  0
    0.5626  -22.6471   22.3715 H   0  0  0  0  0  0  0  0  0  0  0  0
    1.3137  -20.2253   22.5531 H   0  0  0  0  0  0  0  0  0  0  0  0
    1.0751  -14.8202   22.7832 H   0  0  0  0  0  0  0  0  0  0  0  0
   -0.6166  -14.1063   23.9880 H   0  0  0  0  0  0  0  0  0  0  0  0
   -1.8647  -16.1433   24.6049 H   0  0  0  0  0  0  0  0  0  0  0  0
   -2.7975  -20.4342   23.7642 H   0  0  0  0  0  0  0  0  0  0  0  0
   -5.2386  -23.8555   22.1975 H   0  0  0  0  0  0  0  0  0  0  0  0
   -6.3272  -25.9090   22.0189 H   0  0  0  0  0  0  0  0  0  0  0  0
  1  2  1  0
  2  3  1  0
  3  4  2  0
  4  5  1  0
  5  6  2  0
  6  7  1  0
  7  8  1  0
  8  9  2  0
  9 10  1  0
 10 11  2  0
 11 12  1  0
 12 13  1  0
 13 14  2  0
 14 15  1  0
 15 16  2  0
 16 17  1  0
 12 18  2  0
  7 19  2  0
 19 20  1  0
 20 21  2  0
 21 22  1  0
 22  3  1  0
 21  5  1  0
 18  8  1  0
 17 13  1  0
  1 23  1  0
  1 24  1  0
  2 25  1  0
  2 26  1  0
  6 27  1  0
  9 28  1  0
 10 29  1  0
 11 30  1  0
 15 31  1  0
 16 32  1  0
 17 33  1  0
 18 34  1  0
 19 35  1  0
 20 36  1  0
M  END
>  <Energy>  (1319) 
1655.4969871808016

>  <compound_id>  (1319) 
32770

>  <target_id>  (1319) 
1

>  <reference_id>  (1319) 
80

>  <inspiration_ids>  (1319) 
[68, 80]

>  <energy_score>  (1319) 
1540.7633169011367

>  <distance_score>  (1319) 
15.114511477147476

>  <path>  (1319) 
/opt/xchem-fragalysis-2/maxwin/BulkDock/SCRATCH/511021/C32770-P80/C32770-P80.minimised.mol

>  <scratch_subdir>  (1319) 
/opt/xchem-fragalysis-2/maxwin/BulkDock/SCRATCH/511021/C32770-P80

>  <fragmenstein_runtime>  (1319) 
10.712562561035156

>  <fragmenstein_outcome>  (1319) 
too moved

>  <fragmenstein_mode>  (1319) 
expansion

>  <fragmenstein_error>  (1319) 


$$$$
C32771-P68
     RDKit          3D

 38 41  0  0  0  0  0  0  0  0999 V2000
   -4.0142  -16.6555   16.8223 C   0  0  0  0  0  0  0  0  0  0  0  0
   -3.6450  -16.7968   18.2176 N   0  0  0  0  0  0  0  0  0  0  0  0
   -4.8381  -17.9760   19.0090 C   0  0  0  0  0  0  0  0  0  0  0  0
   -6.4303  -18.2550   19.7467 C   0  0  0  0  0  0  0  0  0  0  0  0
   -7.6768  -18.7487   19.2898 C   0  0  0  0  0  0  0  0  0  0  0  0
   -8.4411  -19.1752   20.4227 N   0  0  0  0  0  0  0  0  0  0  0  0
   -9.5239  -20.2084   20.5797 C   0  0  0  0  0  0  0  0  0  0  0  0
   -9.9884  -20.9686   19.4939 C   0  0  0  0  0  0  0  0  0  0  0  0
  -10.4830  -22.2968   19.6734 C   0  0  0  0  0  0  0  0  0  0  0  0
  -10.4423  -22.9001   20.9507 C   0  0  0  0  0  0  0  0  0  0  0  0
  -10.4792  -24.2618   21.2363 N   0  0  0  0  0  0  0  0  0  0  0  0
  -10.2417  -24.4394   22.5180 C   0  0  0  0  0  0  0  0  0  0  0  0
  -10.2087  -23.0291   23.4819 S   0  0  0  0  0  0  0  0  0  0  0  0
  -10.2074  -22.0615   22.0416 C   0  0  0  0  0  0  0  0  0  0  0  0
   -9.8515  -20.6807   21.8813 C   0  0  0  0  0  0  0  0  0  0  0  0
   -7.7529  -18.7417   21.5033 N   0  0  0  0  0  0  0  0  0  0  0  0
   -6.5692  -18.2347   21.1248 N   0  0  0  0  0  0  0  0  0  0  0  0
   -2.0689  -15.8871   18.9962 C   0  0  0  0  0  0  0  0  0  0  0  0
   -0.2133  -15.5710   18.3329 C   0  0  0  0  0  0  0  0  0  0  0  0
    0.2901  -14.3598   17.6801 N   0  0  0  0  0  0  0  0  0  0  0  0
    1.7599  -14.5274   17.6874 C   0  0  0  0  0  0  0  0  0  0  0  0
    2.1987  -15.7515   18.0566 C   0  0  0  0  0  0  0  0  0  0  0  0
    1.0741  -16.3820   18.5084 N   0  0  0  0  0  0  0  0  0  0  0  0
   -3.6347  -15.6558   16.7289 H   0  0  0  0  0  0  0  0  0  0  0  0
   -3.7002  -17.6894   16.6851 H   0  0  0  0  0  0  0  0  0  0  0  0
   -3.7260  -16.6798   15.7456 H   0  0  0  0  0  0  0  0  0  0  0  0
   -4.5544  -17.6302   19.9832 H   0  0  0  0  0  0  0  0  0  0  0  0
   -5.4767  -17.4629   18.3622 H   0  0  0  0  0  0  0  0  0  0  0  0
   -8.0461  -18.9614   18.3123 H   0  0  0  0  0  0  0  0  0  0  0  0
   -9.8422  -20.6207   18.4739 H   0  0  0  0  0  0  0  0  0  0  0  0
  -10.7112  -22.9087   18.8046 H   0  0  0  0  0  0  0  0  0  0  0  0
  -10.1022  -25.4137   22.9656 H   0  0  0  0  0  0  0  0  0  0  0  0
   -9.5407  -20.1202   22.7635 H   0  0  0  0  0  0  0  0  0  0  0  0
   -2.1383  -15.8715   20.0934 H   0  0  0  0  0  0  0  0  0  0  0  0
   -2.1093  -14.8513   18.5974 H   0  0  0  0  0  0  0  0  0  0  0  0
    2.4721  -13.7645   17.6292 H   0  0  0  0  0  0  0  0  0  0  0  0
    3.2008  -16.1485   18.1031 H   0  0  0  0  0  0  0  0  0  0  0  0
    1.1121  -17.3279   18.8303 H   0  0  0  0  0  0  0  0  0  0  0  0
  1  2  1  0
  2  3  1  0
  3  4  1  0
  4  5  2  0
  5  6  1  0
  6  7  1  0
  7  8  2  0
  8  9  1  0
  9 10  2  0
 10 11  1  0
 11 12  2  0
 12 13  1  0
 13 14  1  0
 14 15  2  0
  6 16  1  0
 16 17  2  0
  2 18  1  0
 18 19  1  0
 19 20  2  0
 20 21  1  0
 21 22  2  0
 22 23  1  0
 17  4  1  0
 23 19  1  0
 15  7  1  0
 14 10  1  0
  1 24  1  0
  1 25  1  0
  1 26  1  0
  3 27  1  0
  3 28  1  0
  5 29  1  0
  8 30  1  0
  9 31  1  0
 12 32  1  0
 15 33  1  0
 18 34  1  0
 18 35  1  0
 21 36  1  0
 22 37  1  0
 23 38  1  0
M  END
>  <Energy>  (1320) 
493.15938705644737

>  <compound_id>  (1320) 
32771

>  <target_id>  (1320) 
1

>  <reference_id>  (1320) 
68

>  <inspiration_ids>  (1320) 
[68, 80]

>  <energy_score>  (1320) 
339.3695485291273

>  <distance_score>  (1320) 
15.583097893480875

>  <path>  (1320) 
/opt/xchem-fragalysis-2/maxwin/BulkDock/SCRATCH/511021/C32771-P68/C32771-P68.minimised.mol

>  <scratch_subdir>  (1320) 
/opt/xchem-fragalysis-2/maxwin/BulkDock/SCRATCH/511021/C32771-P68

>  <fragmenstein_runtime>  (1320) 
17.986306190490723

>  <fragmenstein_outcome>  (1320) 
too moved

>  <fragmenstein_mode>  (1320) 
expansion

>  <fragmenstein_error>  (1320) 


$$$$
C32771-P80
     RDKit          3D

 38 41  0  0  0  0  0  0  0  0999 V2000
    0.1916  -16.8400   20.9794 C   0  0  0  0  0  0  0  0  0  0  0  0
    0.3878  -16.3064   19.7213 N   0  0  0  0  0  0  0  0  0  0  0  0
   -1.5287  -16.9707   19.3942 C   0  0  0  0  0  0  0  0  0  0  0  0
   -2.9712  -18.3526   19.6088 C   0  0  0  0  0  0  0  0  0  0  0  0
   -3.2764  -19.7749   20.0017 C   0  0  0  0  0  0  0  0  0  0  0  0
   -4.7432  -20.4064   20.4493 N   0  0  0  0  0  0  0  0  0  0  0  0
   -5.1834  -21.7165   21.6919 C   0  0  0  0  0  0  0  0  0  0  0  0
   -6.0819  -21.4859   23.1386 C   0  0  0  0  0  0  0  0  0  0  0  0
   -6.5572  -22.6476   23.9799 C   0  0  0  0  0  0  0  0  0  0  0  0
   -6.3494  -24.0864   23.7061 C   0  0  0  0  0  0  0  0  0  0  0  0
   -6.8309  -25.1378   24.4968 N   0  0  0  0  0  0  0  0  0  0  0  0
   -6.5065  -26.3020   23.9729 C   0  0  0  0  0  0  0  0  0  0  0  0
   -5.6081  -26.2555   22.5176 S   0  0  0  0  0  0  0  0  0  0  0  0
   -5.6428  -24.5200   22.5611 C   0  0  0  0  0  0  0  0  0  0  0  0
   -5.0671  -23.5700   21.5605 C   0  0  0  0  0  0  0  0  0  0  0  0
   -5.3851  -19.1621   19.9808 N   0  0  0  0  0  0  0  0  0  0  0  0
   -4.4688  -18.1337   19.4333 N   0  0  0  0  0  0  0  0  0  0  0  0
    1.8167  -15.2253   18.6699 C   0  0  0  0  0  0  0  0  0  0  0  0
    3.5459  -14.5547   18.4292 C   0  0  0  0  0  0  0  0  0  0  0  0
    4.6592  -15.2534   18.0713 N   0  0  0  0  0  0  0  0  0  0  0  0
    5.8178  -14.5497   18.4101 C   0  0  0  0  0  0  0  0  0  0  0  0
    5.4879  -13.2556   18.6788 C   0  0  0  0  0  0  0  0  0  0  0  0
    4.1121  -13.2314   18.5087 N   0  0  0  0  0  0  0  0  0  0  0  0
   -0.7435  -17.3368   21.1892 H   0  0  0  0  0  0  0  0  0  0  0  0
    0.1156  -16.0259   21.6515 H   0  0  0  0  0  0  0  0  0  0  0  0
    0.6399  -17.7935   21.1359 H   0  0  0  0  0  0  0  0  0  0  0  0
   -1.9810  -16.3085   20.1185 H   0  0  0  0  0  0  0  0  0  0  0  0
   -1.0225  -17.9052   19.3981 H   0  0  0  0  0  0  0  0  0  0  0  0
   -2.7696  -20.6049   20.3955 H   0  0  0  0  0  0  0  0  0  0  0  0
   -6.4580  -20.4929   23.4119 H   0  0  0  0  0  0  0  0  0  0  0  0
   -7.1545  -22.4106   24.8614 H   0  0  0  0  0  0  0  0  0  0  0  0
   -6.7896  -27.2416   24.4313 H   0  0  0  0  0  0  0  0  0  0  0  0
   -4.5370  -24.0805   20.7665 H   0  0  0  0  0  0  0  0  0  0  0  0
    2.3630  -15.9799   17.9966 H   0  0  0  0  0  0  0  0  0  0  0  0
    1.3498  -14.4108   18.0309 H   0  0  0  0  0  0  0  0  0  0  0  0
    6.7882  -15.0222   18.3724 H   0  0  0  0  0  0  0  0  0  0  0  0
    6.0503  -12.3614   18.8974 H   0  0  0  0  0  0  0  0  0  0  0  0
    3.6358  -12.3578   18.3463 H   0  0  0  0  0  0  0  0  0  0  0  0
  1  2  1  0
  2  3  1  0
  3  4  1  0
  4  5  2  0
  5  6  1  0
  6  7  1  0
  7  8  2  0
  8  9  1  0
  9 10  2  0
 10 11  1  0
 11 12  2  0
 12 13  1  0
 13 14  1  0
 14 15  2  0
  6 16  1  0
 16 17  2  0
  2 18  1  0
 18 19  1  0
 19 20  2  0
 20 21  1  0
 21 22  2  0
 22 23  1  0
 17  4  1  0
 23 19  1  0
 15  7  1  0
 14 10  1  0
  1 24  1  0
  1 25  1  0
  1 26  1  0
  3 27  1  0
  3 28  1  0
  5 29  1  0
  8 30  1  0
  9 31  1  0
 12 32  1  0
 15 33  1  0
 18 34  1  0
 18 35  1  0
 21 36  1  0
 22 37  1  0
 23 38  1  0
M  END
>  <Energy>  (1321) 
914.90172419578357

>  <compound_id>  (1321) 
32771

>  <target_id>  (1321) 
1

>  <reference_id>  (1321) 
80

>  <inspiration_ids>  (1321) 
[68, 80]

>  <energy_score>  (1321) 
761.1118856684733

>  <distance_score>  (1321) 
13.927977449473056

>  <path>  (1321) 
/opt/xchem-fragalysis-2/maxwin/BulkDock/SCRATCH/511021/C32771-P80/C32771-P80.minimised.mol

>  <scratch_subdir>  (1321) 
/opt/xchem-fragalysis-2/maxwin/BulkDock/SCRATCH/511021/C32771-P80

>  <fragmenstein_runtime>  (1321) 
11.472853183746338

>  <fragmenstein_outcome>  (1321) 
too moved

>  <fragmenstein_mode>  (1321) 
expansion

>  <fragmenstein_error>  (1321) 


$$$$
C59655-P68
     RDKit          3D

 50 53  0  0  0  0  0  0  0  0999 V2000
    0.5795  -27.1586   20.9413 C   0  0  0  0  0  0  0  0  0  0  0  0
    0.8711  -26.4932   19.7168 O   0  0  0  0  0  0  0  0  0  0  0  0
    0.9200  -25.1512   19.8384 C   0  0  0  0  0  0  0  0  0  0  0  0
    0.9885  -24.5741   20.9107 O   0  0  0  0  0  0  0  0  0  0  0  0
    0.7723  -24.4328   18.5279 C   0  0  0  0  0  0  0  0  0  0  0  0
   -0.4427  -23.5023   18.5880 C   0  0  0  0  0  0  0  0  0  0  0  0
   -1.7739  -23.8117   18.5588 N   0  0  0  0  0  0  0  0  0  0  0  0
   -2.9022  -22.9607   19.8159 N   0  0  0  0  0  0  0  0  0  0  0  0
   -3.8743  -24.3292   20.9512 C   0  0  0  0  0  0  0  0  0  0  0  0
   -5.4260  -23.9044   20.8730 N   0  0  0  0  0  0  0  0  0  0  0  0
   -6.3589  -24.9523   20.8212 C   0  0  0  0  0  0  0  0  0  0  0  0
   -7.4411  -25.2189   19.9667 C   0  0  0  0  0  0  0  0  0  0  0  0
   -8.2651  -26.3110   20.2491 C   0  0  0  0  0  0  0  0  0  0  0  0
   -8.0499  -27.0616   21.3984 C   0  0  0  0  0  0  0  0  0  0  0  0
   -7.0109  -26.7672   22.2925 C   0  0  0  0  0  0  0  0  0  0  0  0
   -6.1795  -25.7089   21.9317 C   0  0  0  0  0  0  0  0  0  0  0  0
   -5.0535  -24.6892   22.7147 S   0  0  0  0  0  0  0  0  0  0  0  0
   -1.3799  -21.9587   20.3889 C   0  0  0  0  0  0  0  0  0  0  0  0
   -1.0992  -21.3575   21.4372 O   0  0  0  0  0  0  0  0  0  0  0  0
   -0.1233  -22.3057   19.3045 C   0  0  0  0  0  0  0  0  0  0  0  0
    0.9750  -21.6263   18.8913 C   0  0  0  0  0  0  0  0  0  0  0  0
    1.6677  -21.0777   20.0168 C   0  0  0  0  0  0  0  0  0  0  0  0
    1.4966  -21.3574   17.5636 N   0  0  0  0  0  0  0  0  0  0  0  0
    2.5379  -20.3194   17.0261 C   0  0  0  0  0  0  0  0  0  0  0  0
    2.2006  -18.7541   16.9110 C   0  0  0  0  0  0  0  0  0  0  0  0
    3.2714  -17.6739   16.5666 C   0  0  0  0  0  0  0  0  0  0  0  0
    4.2627  -17.6207   15.6002 C   0  0  0  0  0  0  0  0  0  0  0  0
    4.8200  -16.3613   15.6704 N   0  0  0  0  0  0  0  0  0  0  0  0
    4.1719  -15.6772   16.6534 C   0  0  0  0  0  0  0  0  0  0  0  0
    3.2334  -16.4231   17.1942 N   0  0  0  0  0  0  0  0  0  0  0  0
    1.4790  -27.2089   21.5557 H   0  0  0  0  0  0  0  0  0  0  0  0
    0.2229  -28.1551   20.6885 H   0  0  0  0  0  0  0  0  0  0  0  0
   -0.2321  -26.6680   21.4869 H   0  0  0  0  0  0  0  0  0  0  0  0
    0.7947  -25.1138   17.7217 H   0  0  0  0  0  0  0  0  0  0  0  0
    1.7067  -23.8864   18.3723 H   0  0  0  0  0  0  0  0  0  0  0  0
   -7.6249  -24.5864   19.1055 H   0  0  0  0  0  0  0  0  0  0  0  0
   -9.0977  -26.5481   19.5920 H   0  0  0  0  0  0  0  0  0  0  0  0
   -8.7260  -27.8796   21.6083 H   0  0  0  0  0  0  0  0  0  0  0  0
   -6.8967  -27.2950   23.2327 H   0  0  0  0  0  0  0  0  0  0  0  0
    2.3464  -21.8143   20.4119 H   0  0  0  0  0  0  0  0  0  0  0  0
    1.0714  -20.6119   20.7991 H   0  0  0  0  0  0  0  0  0  0  0  0
    2.2368  -20.3818   19.4705 H   0  0  0  0  0  0  0  0  0  0  0  0
    0.8558  -21.6061   16.8173 H   0  0  0  0  0  0  0  0  0  0  0  0
    3.4691  -20.4966   17.5456 H   0  0  0  0  0  0  0  0  0  0  0  0
    2.7466  -20.6521   16.0005 H   0  0  0  0  0  0  0  0  0  0  0  0
    1.6735  -18.4508   17.8160 H   0  0  0  0  0  0  0  0  0  0  0  0
    1.4627  -18.6346   16.1137 H   0  0  0  0  0  0  0  0  0  0  0  0
    4.5896  -18.3422   14.8657 H   0  0  0  0  0  0  0  0  0  0  0  0
    5.5599  -16.0008   15.0853 H   0  0  0  0  0  0  0  0  0  0  0  0
    4.4095  -14.6586   16.9285 H   0  0  0  0  0  0  0  0  0  0  0  0
  1  2  1  0
  2  3  1  0
  3  4  2  0
  3  5  1  0
  5  6  1  0
  6  7  2  0
  7  8  1  0
  8  9  1  0
  9 10  2  0
 10 11  1  0
 11 12  2  0
 12 13  1  0
 13 14  2  0
 14 15  1  0
 15 16  2  0
 16 17  1  0
  8 18  1  0
 18 19  2  0
 18 20  1  0
 20 21  2  3
 21 22  1  0
 21 23  1  0
 23 24  1  0
 24 25  1  0
 25 26  1  0
 26 27  2  0
 27 28  1  0
 28 29  1  0
 29 30  2  0
 20  6  1  0
 30 26  1  0
 17  9  1  0
 16 11  1  0
  1 31  1  0
  1 32  1  0
  1 33  1  0
  5 34  1  0
  5 35  1  0
 12 36  1  0
 13 37  1  0
 14 38  1  0
 15 39  1  0
 22 40  1  0
 22 41  1  0
 22 42  1  0
 23 43  1  0
 24 44  1  0
 24 45  1  0
 25 46  1  0
 25 47  1  0
 27 48  1  0
 28 49  1  0
 29 50  1  0
M  END
>  <Energy>  (1322) 
645.78251783578617

>  <compound_id>  (1322) 
59655

>  <target_id>  (1322) 
1

>  <reference_id>  (1322) 
68

>  <inspiration_ids>  (1322) 
[68, 80]

>  <energy_score>  (1322) 
430.774032759884

>  <distance_score>  (1322) 
13.807812748712866

>  <path>  (1322) 
/opt/xchem-fragalysis-2/maxwin/BulkDock/SCRATCH/511021/C59655-P68/C59655-P68.minimised.mol

>  <scratch_subdir>  (1322) 
/opt/xchem-fragalysis-2/maxwin/BulkDock/SCRATCH/511021/C59655-P68

>  <fragmenstein_runtime>  (1322) 
32.79019021987915

>  <fragmenstein_outcome>  (1322) 
too moved

>  <fragmenstein_mode>  (1322) 
expansion

>  <fragmenstein_error>  (1322) 


$$$$
C59655-P80
     RDKit          3D

 50 53  0  0  0  0  0  0  0  0999 V2000
    2.8122  -21.1721   17.1831 C   0  0  0  0  0  0  0  0  0  0  0  0
    4.0521  -21.3679   16.4907 O   0  0  0  0  0  0  0  0  0  0  0  0
    4.6165  -22.5926   16.5906 C   0  0  0  0  0  0  0  0  0  0  0  0
    5.5135  -22.8335   17.3930 O   0  0  0  0  0  0  0  0  0  0  0  0
    4.1394  -23.5831   15.5796 C   0  0  0  0  0  0  0  0  0  0  0  0
    2.6762  -23.7859   15.3681 C   0  0  0  0  0  0  0  0  0  0  0  0
    2.0463  -24.7910   15.9346 N   0  0  0  0  0  0  0  0  0  0  0  0
    0.7837  -24.9078   15.3471 N   0  0  0  0  0  0  0  0  0  0  0  0
   -0.0971  -25.9829   15.7501 C   0  0  0  0  0  0  0  0  0  0  0  0
    0.0831  -26.8265   16.7669 N   0  0  0  0  0  0  0  0  0  0  0  0
   -0.9924  -27.7291   16.9174 C   0  0  0  0  0  0  0  0  0  0  0  0
   -1.1484  -28.7419   17.8993 C   0  0  0  0  0  0  0  0  0  0  0  0
   -2.2950  -29.5592   17.9215 C   0  0  0  0  0  0  0  0  0  0  0  0
   -3.3020  -29.3800   16.9835 C   0  0  0  0  0  0  0  0  0  0  0  0
   -3.1700  -28.3964   15.9943 C   0  0  0  0  0  0  0  0  0  0  0  0
   -2.0085  -27.5833   15.9769 C   0  0  0  0  0  0  0  0  0  0  0  0
   -1.5655  -26.2986   14.8972 S   0  0  0  0  0  0  0  0  0  0  0  0
    0.6255  -23.9754   14.2758 C   0  0  0  0  0  0  0  0  0  0  0  0
   -0.2043  -23.9528   13.3821 O   0  0  0  0  0  0  0  0  0  0  0  0
    1.8481  -22.9969   14.4021 C   0  0  0  0  0  0  0  0  0  0  0  0
    2.0858  -21.7504   13.8353 C   0  0  0  0  0  0  0  0  0  0  0  0
    1.0537  -21.1766   12.8766 C   0  0  0  0  0  0  0  0  0  0  0  0
    3.2260  -20.8445   14.0033 N   0  0  0  0  0  0  0  0  0  0  0  0
    3.2402  -19.2976   13.8996 C   0  0  0  0  0  0  0  0  0  0  0  0
    4.6946  -18.6313   13.9270 C   0  0  0  0  0  0  0  0  0  0  0  0
    4.8815  -17.1154   14.1171 C   0  0  0  0  0  0  0  0  0  0  0  0
    4.3711  -16.0354   13.4175 C   0  0  0  0  0  0  0  0  0  0  0  0
    4.9943  -14.9131   13.9151 N   0  0  0  0  0  0  0  0  0  0  0  0
    5.8610  -15.3240   14.8842 C   0  0  0  0  0  0  0  0  0  0  0  0
    5.8240  -16.6335   15.0268 N   0  0  0  0  0  0  0  0  0  0  0  0
    2.1654  -22.0456   17.1185 H   0  0  0  0  0  0  0  0  0  0  0  0
    2.2963  -20.3276   16.7193 H   0  0  0  0  0  0  0  0  0  0  0  0
    2.9935  -20.9168   18.2246 H   0  0  0  0  0  0  0  0  0  0  0  0
    4.5592  -24.5571   15.8649 H   0  0  0  0  0  0  0  0  0  0  0  0
    4.6053  -23.3285   14.6207 H   0  0  0  0  0  0  0  0  0  0  0  0
   -0.3816  -28.8610   18.6593 H   0  0  0  0  0  0  0  0  0  0  0  0
   -2.3981  -30.3069   18.7043 H   0  0  0  0  0  0  0  0  0  0  0  0
   -4.1927  -30.0016   17.0181 H   0  0  0  0  0  0  0  0  0  0  0  0
   -3.9500  -28.2492   15.2535 H   0  0  0  0  0  0  0  0  0  0  0  0
    0.2258  -21.8420   12.6406 H   0  0  0  0  0  0  0  0  0  0  0  0
    0.6210  -20.2616   13.2948 H   0  0  0  0  0  0  0  0  0  0  0  0
    1.5333  -20.9269   11.9233 H   0  0  0  0  0  0  0  0  0  0  0  0
    3.7970  -21.1093   14.8034 H   0  0  0  0  0  0  0  0  0  0  0  0
    2.6547  -18.9076   14.7389 H   0  0  0  0  0  0  0  0  0  0  0  0
    2.7448  -19.0014   12.9693 H   0  0  0  0  0  0  0  0  0  0  0  0
    5.1863  -18.8980   12.9819 H   0  0  0  0  0  0  0  0  0  0  0  0
    5.2726  -19.1423   14.7041 H   0  0  0  0  0  0  0  0  0  0  0  0
    3.6591  -15.9696   12.6069 H   0  0  0  0  0  0  0  0  0  0  0  0
    4.8482  -13.9597   13.6124 H   0  0  0  0  0  0  0  0  0  0  0  0
    6.4850  -14.6401   15.4441 H   0  0  0  0  0  0  0  0  0  0  0  0
  1  2  1  0
  2  3  1  0
  3  4  2  0
  3  5  1  0
  5  6  1  0
  6  7  2  0
  7  8  1  0
  8  9  1  0
  9 10  2  0
 10 11  1  0
 11 12  2  0
 12 13  1  0
 13 14  2  0
 14 15  1  0
 15 16  2  0
 16 17  1  0
  8 18  1  0
 18 19  2  0
 18 20  1  0
 20 21  2  3
 21 22  1  0
 21 23  1  0
 23 24  1  0
 24 25  1  0
 25 26  1  0
 26 27  2  0
 27 28  1  0
 28 29  1  0
 29 30  2  0
 20  6  1  0
 30 26  1  0
 17  9  1  0
 16 11  1  0
  1 31  1  0
  1 32  1  0
  1 33  1  0
  5 34  1  0
  5 35  1  0
 12 36  1  0
 13 37  1  0
 14 38  1  0
 15 39  1  0
 22 40  1  0
 22 41  1  0
 22 42  1  0
 23 43  1  0
 24 44  1  0
 24 45  1  0
 25 46  1  0
 25 47  1  0
 27 48  1  0
 28 49  1  0
 29 50  1  0
M  END
>  <Energy>  (1323) 
129.91164717211532

>  <compound_id>  (1323) 
59655

>  <target_id>  (1323) 
1

>  <reference_id>  (1323) 
80

>  <inspiration_ids>  (1323) 
[68, 80]

>  <energy_score>  (1323) 
-85.09683790376766

>  <distance_score>  (1323) 
14.197698865683844

>  <path>  (1323) 
/opt/xchem-fragalysis-2/maxwin/BulkDock/SCRATCH/511021/C59655-P80/C59655-P80.minimised.mol

>  <scratch_subdir>  (1323) 
/opt/xchem-fragalysis-2/maxwin/BulkDock/SCRATCH/511021/C59655-P80

>  <fragmenstein_runtime>  (1323) 
31.729336977005005

>  <fragmenstein_outcome>  (1323) 
too moved

>  <fragmenstein_mode>  (1323) 
expansion

>  <fragmenstein_error>  (1323) 


$$$$
C32772-P68
     RDKit          3D

 34 36  0  0  0  0  0  0  0  0999 V2000
   -3.2717  -30.9605   25.9635 O   0  0  0  0  0  0  0  0  0  0  0  0
   -2.8336  -31.6560   25.0828 C   0  0  0  0  0  0  0  0  0  0  0  0
   -1.6106  -30.9515   24.2178 C   0  0  0  0  0  0  0  0  0  0  0  0
   -1.6706  -29.3440   24.1998 C   0  0  0  0  0  0  0  0  0  0  0  0
   -0.5064  -28.4088   23.6450 C   0  0  0  0  0  0  0  0  0  0  0  0
   -0.1921  -28.1095   22.3869 N   0  0  0  0  0  0  0  0  0  0  0  0
    0.7835  -27.1251   22.4220 C   0  0  0  0  0  0  0  0  0  0  0  0
    1.0698  -26.7952   23.7210 C   0  0  0  0  0  0  0  0  0  0  0  0
    0.2127  -27.5535   24.4758 N   0  0  0  0  0  0  0  0  0  0  0  0
   -3.2409  -33.0243   24.6317 N   0  0  0  0  0  0  0  0  0  0  0  0
   -4.2905  -34.0240   25.2224 C   0  0  0  0  0  0  0  0  0  0  0  0
   -5.5798  -34.9717   24.3588 C   0  0  0  0  0  0  0  0  0  0  0  0
   -6.8462  -34.5542   24.4634 N   0  0  0  0  0  0  0  0  0  0  0  0
   -7.7871  -35.4223   23.9327 C   0  0  0  0  0  0  0  0  0  0  0  0
   -9.1871  -35.2691   24.0008 C   0  0  0  0  0  0  0  0  0  0  0  0
  -10.0130  -36.1900   23.3548 C   0  0  0  0  0  0  0  0  0  0  0  0
   -9.4547  -37.2526   22.6519 C   0  0  0  0  0  0  0  0  0  0  0  0
   -8.0661  -37.4301   22.5941 C   0  0  0  0  0  0  0  0  0  0  0  0
   -7.2503  -36.5008   23.2575 C   0  0  0  0  0  0  0  0  0  0  0  0
   -5.5518  -36.4460   23.4316 S   0  0  0  0  0  0  0  0  0  0  0  0
   -0.6778  -31.2617   24.7021 H   0  0  0  0  0  0  0  0  0  0  0  0
   -1.6020  -31.3353   23.1948 H   0  0  0  0  0  0  0  0  0  0  0  0
   -2.5696  -29.0635   23.6353 H   0  0  0  0  0  0  0  0  0  0  0  0
   -1.8520  -29.0116   25.2306 H   0  0  0  0  0  0  0  0  0  0  0  0
    1.2071  -26.7268   21.5092 H   0  0  0  0  0  0  0  0  0  0  0  0
    1.7484  -26.1031   24.1933 H   0  0  0  0  0  0  0  0  0  0  0  0
    0.1177  -27.5106   25.4803 H   0  0  0  0  0  0  0  0  0  0  0  0
   -2.5981  -33.3427   23.9135 H   0  0  0  0  0  0  0  0  0  0  0  0
   -4.8966  -33.3325   25.8235 H   0  0  0  0  0  0  0  0  0  0  0  0
   -3.7527  -34.6507   25.9353 H   0  0  0  0  0  0  0  0  0  0  0  0
   -9.6026  -34.4266   24.5457 H   0  0  0  0  0  0  0  0  0  0  0  0
  -11.0923  -36.0704   23.3974 H   0  0  0  0  0  0  0  0  0  0  0  0
  -10.1045  -37.9649   22.1476 H   0  0  0  0  0  0  0  0  0  0  0  0
   -7.6336  -38.2702   22.0602 H   0  0  0  0  0  0  0  0  0  0  0  0
  1  2  2  0
  2  3  1  0
  3  4  1  0
  4  5  1  0
  5  6  2  0
  6  7  1  0
  7  8  2  0
  8  9  1  0
  2 10  1  0
 10 11  1  0
 11 12  1  0
 12 13  2  0
 13 14  1  0
 14 15  2  0
 15 16  1  0
 16 17  2  0
 17 18  1  0
 18 19  2  0
 19 20  1  0
  9  5  1  0
 20 12  1  0
 19 14  1  0
  3 21  1  0
  3 22  1  0
  4 23  1  0
  4 24  1  0
  7 25  1  0
  8 26  1  0
  9 27  1  0
 10 28  1  0
 11 29  1  0
 11 30  1  0
 15 31  1  0
 16 32  1  0
 17 33  1  0
 18 34  1  0
M  END
>  <Energy>  (1324) 
76.49705997546711

>  <compound_id>  (1324) 
32772

>  <target_id>  (1324) 
1

>  <reference_id>  (1324) 
68

>  <inspiration_ids>  (1324) 
[68, 80]

>  <energy_score>  (1324) 
16.939612890669196

>  <distance_score>  (1324) 
17.937546155153157

>  <path>  (1324) 
/opt/xchem-fragalysis-2/maxwin/BulkDock/SCRATCH/511021/C32772-P68/C32772-P68.minimised.mol

>  <scratch_subdir>  (1324) 
/opt/xchem-fragalysis-2/maxwin/BulkDock/SCRATCH/511021/C32772-P68

>  <fragmenstein_runtime>  (1324) 
18.413935899734497

>  <fragmenstein_outcome>  (1324) 
too moved

>  <fragmenstein_mode>  (1324) 
expansion

>  <fragmenstein_error>  (1324) 


$$$$
C32772-P80
     RDKit          3D

 34 36  0  0  0  0  0  0  0  0999 V2000
    2.5028  -24.3854   14.8845 O   0  0  0  0  0  0  0  0  0  0  0  0
    2.3179  -23.9655   15.9975 C   0  0  0  0  0  0  0  0  0  0  0  0
    2.9643  -22.5079   16.2718 C   0  0  0  0  0  0  0  0  0  0  0  0
    3.4674  -21.7874   14.9560 C   0  0  0  0  0  0  0  0  0  0  0  0
    4.4134  -20.5430   14.9735 C   0  0  0  0  0  0  0  0  0  0  0  0
    4.0774  -19.2685   14.8436 N   0  0  0  0  0  0  0  0  0  0  0  0
    5.1982  -18.5654   14.4677 C   0  0  0  0  0  0  0  0  0  0  0  0
    6.2878  -19.3953   14.4584 C   0  0  0  0  0  0  0  0  0  0  0  0
    5.7872  -20.6338   14.7954 N   0  0  0  0  0  0  0  0  0  0  0  0
    1.6889  -24.6007   17.1677 N   0  0  0  0  0  0  0  0  0  0  0  0
    1.1753  -25.9976   17.3688 C   0  0  0  0  0  0  0  0  0  0  0  0
   -0.0627  -26.4557   18.2225 C   0  0  0  0  0  0  0  0  0  0  0  0
    0.0025  -27.2474   19.2944 N   0  0  0  0  0  0  0  0  0  0  0  0
   -1.2452  -27.8287   19.6142 C   0  0  0  0  0  0  0  0  0  0  0  0
   -1.5314  -28.7410   20.6659 C   0  0  0  0  0  0  0  0  0  0  0  0
   -2.8259  -29.2643   20.8372 C   0  0  0  0  0  0  0  0  0  0  0  0
   -3.8483  -28.8924   19.9732 C   0  0  0  0  0  0  0  0  0  0  0  0
   -3.5967  -27.9912   18.9288 C   0  0  0  0  0  0  0  0  0  0  0  0
   -2.2900  -27.4690   18.7662 C   0  0  0  0  0  0  0  0  0  0  0  0
   -1.6767  -26.3562   17.5810 S   0  0  0  0  0  0  0  0  0  0  0  0
    3.8304  -22.6601   16.9226 H   0  0  0  0  0  0  0  0  0  0  0  0
    2.2303  -21.8796   16.7813 H   0  0  0  0  0  0  0  0  0  0  0  0
    2.5783  -21.4908   14.3839 H   0  0  0  0  0  0  0  0  0  0  0  0
    3.9805  -22.5326   14.3332 H   0  0  0  0  0  0  0  0  0  0  0  0
    5.1476  -17.5081   14.2648 H   0  0  0  0  0  0  0  0  0  0  0  0
    7.3308  -19.2375   14.2272 H   0  0  0  0  0  0  0  0  0  0  0  0
    6.2995  -21.5038   14.7759 H   0  0  0  0  0  0  0  0  0  0  0  0
    1.7797  -23.9780   17.9756 H   0  0  0  0  0  0  0  0  0  0  0  0
    2.0368  -26.5320   17.7903 H   0  0  0  0  0  0  0  0  0  0  0  0
    1.0412  -26.4089   16.3599 H   0  0  0  0  0  0  0  0  0  0  0  0
   -0.7308  -29.0321   21.3392 H   0  0  0  0  0  0  0  0  0  0  0  0
   -3.0248  -29.9599   21.6496 H   0  0  0  0  0  0  0  0  0  0  0  0
   -4.8495  -29.2976   20.1115 H   0  0  0  0  0  0  0  0  0  0  0  0
   -4.3957  -27.6973   18.2550 H   0  0  0  0  0  0  0  0  0  0  0  0
  1  2  2  0
  2  3  1  0
  3  4  1  0
  4  5  1  0
  5  6  2  0
  6  7  1  0
  7  8  2  0
  8  9  1  0
  2 10  1  0
 10 11  1  0
 11 12  1  0
 12 13  2  0
 13 14  1  0
 14 15  2  0
 15 16  1  0
 16 17  2  0
 17 18  1  0
 18 19  2  0
 19 20  1  0
  9  5  1  0
 20 12  1  0
 19 14  1  0
  3 21  1  0
  3 22  1  0
  4 23  1  0
  4 24  1  0
  7 25  1  0
  8 26  1  0
  9 27  1  0
 10 28  1  0
 11 29  1  0
 11 30  1  0
 15 31  1  0
 16 32  1  0
 17 33  1  0
 18 34  1  0
M  END
>  <Energy>  (1325) 
37.217984266446173

>  <compound_id>  (1325) 
32772

>  <target_id>  (1325) 
1

>  <reference_id>  (1325) 
80

>  <inspiration_ids>  (1325) 
[68, 80]

>  <energy_score>  (1325) 
-22.339462818355457

>  <distance_score>  (1325) 
14.723693145497418

>  <path>  (1325) 
/opt/xchem-fragalysis-2/maxwin/BulkDock/SCRATCH/511021/C32772-P80/C32772-P80.minimised.mol

>  <scratch_subdir>  (1325) 
/opt/xchem-fragalysis-2/maxwin/BulkDock/SCRATCH/511021/C32772-P80

>  <fragmenstein_runtime>  (1325) 
11.038039684295654

>  <fragmenstein_outcome>  (1325) 
too moved

>  <fragmenstein_mode>  (1325) 
expansion

>  <fragmenstein_error>  (1325) 


$$$$
C59656-P68
     RDKit          3D

 34 36  0  0  0  0  0  0  0  0999 V2000
    1.3516  -15.5940   19.4736 O   0  0  0  0  0  0  0  0  0  0  0  0
    0.6921  -14.9110   20.2118 C   0  0  0  0  0  0  0  0  0  0  0  0
    1.0615  -13.3468   20.2441 C   0  0  0  0  0  0  0  0  0  0  0  0
    2.4895  -13.0211   19.6201 C   0  0  0  0  0  0  0  0  0  0  0  0
    2.9470  -11.5854   19.3744 C   0  0  0  0  0  0  0  0  0  0  0  0
    2.9601  -10.8735   18.1849 C   0  0  0  0  0  0  0  0  0  0  0  0
    3.6796   -9.7297   18.4238 N   0  0  0  0  0  0  0  0  0  0  0  0
    4.0788   -9.7694   19.7273 C   0  0  0  0  0  0  0  0  0  0  0  0
    3.6563  -10.8659   20.3244 N   0  0  0  0  0  0  0  0  0  0  0  0
   -0.3651  -15.2870   21.1920 N   0  0  0  0  0  0  0  0  0  0  0  0
   -0.9821  -16.8166   21.6465 C   0  0  0  0  0  0  0  0  0  0  0  0
   -0.9546  -18.8176   22.2611 C   0  0  0  0  0  0  0  0  0  0  0  0
   -0.9851  -20.1429   21.8902 N   0  0  0  0  0  0  0  0  0  0  0  0
   -2.0216  -21.0222   23.1281 C   0  0  0  0  0  0  0  0  0  0  0  0
   -1.8657  -22.4449   23.0875 C   0  0  0  0  0  0  0  0  0  0  0  0
   -3.2164  -24.2792   23.1430 C   0  0  0  0  0  0  0  0  0  0  0  0
   -5.0339  -24.6579   22.0691 Cl  0  0  0  0  0  0  0  0  0  0  0  0
   -4.6835  -23.7585   24.3605 C   0  0  0  0  0  0  0  0  0  0  0  0
   -4.5465  -21.9220   24.9773 C   0  0  0  0  0  0  0  0  0  0  0  0
   -3.3334  -20.5952   24.3121 C   0  0  0  0  0  0  0  0  0  0  0  0
   -1.5472  -20.0502   23.2450 S   0  0  0  0  0  0  0  0  0  0  0  0
    1.0357  -12.9998   21.2824 H   0  0  0  0  0  0  0  0  0  0  0  0
    0.2868  -12.8194   19.6773 H   0  0  0  0  0  0  0  0  0  0  0  0
    2.5604  -13.5444   18.6571 H   0  0  0  0  0  0  0  0  0  0  0  0
    3.2397  -13.4941   20.2664 H   0  0  0  0  0  0  0  0  0  0  0  0
    2.5753  -11.1054   17.2016 H   0  0  0  0  0  0  0  0  0  0  0  0
    3.8949   -9.0040   17.7539 H   0  0  0  0  0  0  0  0  0  0  0  0
    4.6714   -8.9873   20.1829 H   0  0  0  0  0  0  0  0  0  0  0  0
   -0.7704  -14.4438   21.5851 H   0  0  0  0  0  0  0  0  0  0  0  0
    0.0827  -16.9319   21.3454 H   0  0  0  0  0  0  0  0  0  0  0  0
   -1.8958  -16.7161   21.0314 H   0  0  0  0  0  0  0  0  0  0  0  0
   -0.7028  -22.3667   22.8252 H   0  0  0  0  0  0  0  0  0  0  0  0
   -5.5460  -24.3756   24.5868 H   0  0  0  0  0  0  0  0  0  0  0  0
   -5.3649  -21.4913   25.5614 H   0  0  0  0  0  0  0  0  0  0  0  0
  1  2  2  0
  2  3  1  0
  3  4  1  0
  4  5  1  0
  5  6  2  0
  6  7  1  0
  7  8  1  0
  8  9  2  0
  2 10  1  0
 10 11  1  0
 11 12  1  0
 12 13  2  0
 13 14  1  0
 14 15  2  0
 15 16  1  0
 16 17  1  0
 16 18  2  0
 18 19  1  0
 19 20  2  0
 20 21  1  0
  9  5  1  0
 21 12  1  0
 20 14  1  0
  3 22  1  0
  3 23  1  0
  4 24  1  0
  4 25  1  0
  6 26  1  0
  7 27  1  0
  8 28  1  0
 10 29  1  0
 11 30  1  0
 11 31  1  0
 15 32  1  0
 18 33  1  0
 19 34  1  0
M  END
>  <Energy>  (1326) 
1477.2927638481631

>  <compound_id>  (1326) 
59656

>  <target_id>  (1326) 
1

>  <reference_id>  (1326) 
68

>  <inspiration_ids>  (1326) 
[68, 80]

>  <energy_score>  (1326) 
1423.5870615712433

>  <distance_score>  (1326) 
14.878648045366917

>  <path>  (1326) 
/opt/xchem-fragalysis-2/maxwin/BulkDock/SCRATCH/511021/C59656-P68/C59656-P68.minimised.mol

>  <scratch_subdir>  (1326) 
/opt/xchem-fragalysis-2/maxwin/BulkDock/SCRATCH/511021/C59656-P68

>  <fragmenstein_runtime>  (1326) 
19.632149696350098

>  <fragmenstein_outcome>  (1326) 
too moved

>  <fragmenstein_mode>  (1326) 
expansion

>  <fragmenstein_error>  (1326) 


$$$$
C59656-P80
     RDKit          3D

 34 36  0  0  0  0  0  0  0  0999 V2000
    0.0775  -18.1415   25.9108 O   0  0  0  0  0  0  0  0  0  0  0  0
    0.7622  -18.5433   24.9294 C   0  0  0  0  0  0  0  0  0  0  0  0
    2.5113  -17.7487   24.9947 C   0  0  0  0  0  0  0  0  0  0  0  0
    3.1757  -16.2410   24.5665 C   0  0  0  0  0  0  0  0  0  0  0  0
    4.3775  -15.3425   24.8748 C   0  0  0  0  0  0  0  0  0  0  0  0
    5.5013  -15.3969   25.6639 C   0  0  0  0  0  0  0  0  0  0  0  0
    6.2629  -14.2909   25.3394 N   0  0  0  0  0  0  0  0  0  0  0  0
    5.6006  -13.5781   24.3868 C   0  0  0  0  0  0  0  0  0  0  0  0
    4.4673  -14.1659   24.0882 N   0  0  0  0  0  0  0  0  0  0  0  0
    0.3039  -19.8005   23.6940 N   0  0  0  0  0  0  0  0  0  0  0  0
   -1.2775  -20.9852   23.5973 C   0  0  0  0  0  0  0  0  0  0  0  0
   -1.9349  -22.5571   22.9141 C   0  0  0  0  0  0  0  0  0  0  0  0
   -2.8406  -24.3919   22.8354 N   0  0  0  0  0  0  0  0  0  0  0  0
   -2.7639  -25.8738   23.7746 C   0  0  0  0  0  0  0  0  0  0  0  0
   -2.4180  -27.2326   23.5798 C   0  0  0  0  0  0  0  0  0  0  0  0
   -3.2609  -28.1721   24.1889 C   0  0  0  0  0  0  0  0  0  0  0  0
   -2.9366  -29.8504   23.9856 Cl  0  0  0  0  0  0  0  0  0  0  0  0
   -4.3868  -27.7770   24.9179 C   0  0  0  0  0  0  0  0  0  0  0  0
   -4.6711  -26.4122   25.1236 C   0  0  0  0  0  0  0  0  0  0  0  0
   -3.8086  -25.4335   24.5866 C   0  0  0  0  0  0  0  0  0  0  0  0
   -3.5748  -24.6406   22.7215 S   0  0  0  0  0  0  0  0  0  0  0  0
    3.1377  -18.5889   24.7195 H   0  0  0  0  0  0  0  0  0  0  0  0
    2.6499  -17.6734   26.0864 H   0  0  0  0  0  0  0  0  0  0  0  0
    2.3732  -15.5025   24.5384 H   0  0  0  0  0  0  0  0  0  0  0  0
    3.5708  -16.4830   23.5937 H   0  0  0  0  0  0  0  0  0  0  0  0
    5.8403  -16.1185   26.3917 H   0  0  0  0  0  0  0  0  0  0  0  0
    7.1580  -14.0514   25.7408 H   0  0  0  0  0  0  0  0  0  0  0  0
    5.9810  -12.6610   23.9589 H   0  0  0  0  0  0  0  0  0  0  0  0
    1.0179  -19.8471   22.9786 H   0  0  0  0  0  0  0  0  0  0  0  0
   -1.9148  -20.3033   23.0719 H   0  0  0  0  0  0  0  0  0  0  0  0
   -0.4304  -21.5803   23.2365 H   0  0  0  0  0  0  0  0  0  0  0  0
   -1.6520  -27.5195   22.8688 H   0  0  0  0  0  0  0  0  0  0  0  0
   -5.0401  -28.5289   25.3581 H   0  0  0  0  0  0  0  0  0  0  0  0
   -5.4815  -26.1162   25.7827 H   0  0  0  0  0  0  0  0  0  0  0  0
  1  2  2  0
  2  3  1  0
  3  4  1  0
  4  5  1  0
  5  6  2  0
  6  7  1  0
  7  8  1  0
  8  9  2  0
  2 10  1  0
 10 11  1  0
 11 12  1  0
 12 13  2  0
 13 14  1  0
 14 15  2  0
 15 16  1  0
 16 17  1  0
 16 18  2  0
 18 19  1  0
 19 20  2  0
 20 21  1  0
  9  5  1  0
 21 12  1  0
 20 14  1  0
  3 22  1  0
  3 23  1  0
  4 24  1  0
  4 25  1  0
  6 26  1  0
  7 27  1  0
  8 28  1  0
 10 29  1  0
 11 30  1  0
 11 31  1  0
 15 32  1  0
 18 33  1  0
 19 34  1  0
M  END
>  <Energy>  (1327) 
1329.7960954625071

>  <compound_id>  (1327) 
59656

>  <target_id>  (1327) 
1

>  <reference_id>  (1327) 
80

>  <inspiration_ids>  (1327) 
[68, 80]

>  <energy_score>  (1327) 
1276.0903931856044

>  <distance_score>  (1327) 
14.181354333561394

>  <path>  (1327) 
/opt/xchem-fragalysis-2/maxwin/BulkDock/SCRATCH/511021/C59656-P80/C59656-P80.minimised.mol

>  <scratch_subdir>  (1327) 
/opt/xchem-fragalysis-2/maxwin/BulkDock/SCRATCH/511021/C59656-P80

>  <fragmenstein_runtime>  (1327) 
10.520264625549316

>  <fragmenstein_outcome>  (1327) 
too moved

>  <fragmenstein_mode>  (1327) 
expansion

>  <fragmenstein_error>  (1327) 


$$$$
C32773-P68
     RDKit          3D

 37 39  0  0  0  0  0  0  0  0999 V2000
   -7.7332  -28.9179   18.7127 C   0  0  0  0  0  0  0  0  0  0  0  0
   -7.6919  -27.5623   19.3549 C   0  0  0  0  0  0  0  0  0  0  0  0
   -8.5339  -27.2326   20.4175 C   0  0  0  0  0  0  0  0  0  0  0  0
   -8.5667  -25.9314   20.9380 C   0  0  0  0  0  0  0  0  0  0  0  0
   -7.7864  -24.9379   20.3121 C   0  0  0  0  0  0  0  0  0  0  0  0
   -7.7589  -23.2156   20.5534 S   0  0  0  0  0  0  0  0  0  0  0  0
   -6.7657  -22.9997   19.1499 C   0  0  0  0  0  0  0  0  0  0  0  0
   -6.8548  -21.7349   18.2529 C   0  0  0  0  0  0  0  0  0  0  0  0
   -6.3582  -20.3675   18.5661 N   0  0  0  0  0  0  0  0  0  0  0  0
   -5.8289  -19.3158   17.6904 C   0  0  0  0  0  0  0  0  0  0  0  0
   -5.5899  -19.3270   16.5135 O   0  0  0  0  0  0  0  0  0  0  0  0
   -5.6378  -17.8880   18.3947 C   0  0  0  0  0  0  0  0  0  0  0  0
   -4.9043  -16.8649   17.4273 C   0  0  0  0  0  0  0  0  0  0  0  0
   -4.3084  -15.4994   17.8715 C   0  0  0  0  0  0  0  0  0  0  0  0
   -4.1234  -14.4478   17.0739 N   0  0  0  0  0  0  0  0  0  0  0  0
   -3.4846  -13.4768   17.8100 C   0  0  0  0  0  0  0  0  0  0  0  0
   -3.2786  -13.9262   19.0872 C   0  0  0  0  0  0  0  0  0  0  0  0
   -3.7251  -15.2258   19.0909 N   0  0  0  0  0  0  0  0  0  0  0  0
   -6.2338  -24.1428   18.7289 N   0  0  0  0  0  0  0  0  0  0  0  0
   -6.9022  -25.2443   19.2816 C   0  0  0  0  0  0  0  0  0  0  0  0
   -6.8297  -26.5838   18.8320 C   0  0  0  0  0  0  0  0  0  0  0  0
   -6.7320  -29.3592   18.6807 H   0  0  0  0  0  0  0  0  0  0  0  0
   -8.3872  -29.5976   19.2667 H   0  0  0  0  0  0  0  0  0  0  0  0
   -8.1215  -28.8370   17.6923 H   0  0  0  0  0  0  0  0  0  0  0  0
   -9.1944  -27.9833   20.8475 H   0  0  0  0  0  0  0  0  0  0  0  0
   -9.2439  -25.6835   21.7503 H   0  0  0  0  0  0  0  0  0  0  0  0
   -7.9172  -21.5920   18.0155 H   0  0  0  0  0  0  0  0  0  0  0  0
   -6.3797  -21.9959   17.2980 H   0  0  0  0  0  0  0  0  0  0  0  0
   -6.5120  -19.9825   19.4903 H   0  0  0  0  0  0  0  0  0  0  0  0
   -6.6389  -17.5001   18.6166 H   0  0  0  0  0  0  0  0  0  0  0  0
   -5.1256  -18.0137   19.3473 H   0  0  0  0  0  0  0  0  0  0  0  0
   -4.0854  -17.3937   16.9275 H   0  0  0  0  0  0  0  0  0  0  0  0
   -5.6189  -16.6271   16.6263 H   0  0  0  0  0  0  0  0  0  0  0  0
   -3.2431  -12.5126   17.3830 H   0  0  0  0  0  0  0  0  0  0  0  0
   -2.8595  -13.4666   19.9688 H   0  0  0  0  0  0  0  0  0  0  0  0
   -3.6427  -15.8886   19.8498 H   0  0  0  0  0  0  0  0  0  0  0  0
   -6.1662  -26.8151   18.0028 H   0  0  0  0  0  0  0  0  0  0  0  0
  1  2  1  0
  2  3  2  0
  3  4  1  0
  4  5  2  0
  5  6  1  0
  6  7  1  0
  7  8  1  0
  8  9  1  0
  9 10  1  0
 10 11  2  0
 10 12  1  0
 12 13  1  0
 13 14  1  0
 14 15  2  0
 15 16  1  0
 16 17  2  0
 17 18  1  0
  7 19  2  0
 19 20  1  0
 20 21  2  0
 21  2  1  0
 20  5  1  0
 18 14  1  0
  1 22  1  0
  1 23  1  0
  1 24  1  0
  3 25  1  0
  4 26  1  0
  8 27  1  0
  8 28  1  0
  9 29  1  0
 12 30  1  0
 12 31  1  0
 13 32  1  0
 13 33  1  0
 16 34  1  0
 17 35  1  0
 18 36  1  0
 21 37  1  0
M  END
>  <Energy>  (1328) 
44.62342633705137

>  <compound_id>  (1328) 
32773

>  <target_id>  (1328) 
1

>  <reference_id>  (1328) 
68

>  <inspiration_ids>  (1328) 
[68, 80]

>  <energy_score>  (1328) 
-27.268089341640632

>  <distance_score>  (1328) 
15.125071025907259

>  <path>  (1328) 
/opt/xchem-fragalysis-2/maxwin/BulkDock/SCRATCH/511021/C32773-P68/C32773-P68.minimised.mol

>  <scratch_subdir>  (1328) 
/opt/xchem-fragalysis-2/maxwin/BulkDock/SCRATCH/511021/C32773-P68

>  <fragmenstein_runtime>  (1328) 
14.785761833190918

>  <fragmenstein_outcome>  (1328) 
too moved

>  <fragmenstein_mode>  (1328) 
expansion

>  <fragmenstein_error>  (1328) 


$$$$
C32773-P80
     RDKit          3D

 37 39  0  0  0  0  0  0  0  0999 V2000
   -2.9913  -27.2023   18.5430 C   0  0  0  0  0  0  0  0  0  0  0  0
   -1.6172  -26.7059   18.2101 C   0  0  0  0  0  0  0  0  0  0  0  0
   -0.5202  -27.5602   18.2403 C   0  0  0  0  0  0  0  0  0  0  0  0
    0.7625  -27.0943   17.8939 C   0  0  0  0  0  0  0  0  0  0  0  0
    0.9472  -25.7329   17.5409 C   0  0  0  0  0  0  0  0  0  0  0  0
    2.3779  -24.8709   17.0208 S   0  0  0  0  0  0  0  0  0  0  0  0
    1.5530  -23.2979   17.1186 C   0  0  0  0  0  0  0  0  0  0  0  0
    2.4448  -21.7626   16.9933 C   0  0  0  0  0  0  0  0  0  0  0  0
    2.4565  -20.8013   18.2435 N   0  0  0  0  0  0  0  0  0  0  0  0
    1.9289  -20.9714   19.5779 C   0  0  0  0  0  0  0  0  0  0  0  0
    1.4270  -21.9363   20.0541 O   0  0  0  0  0  0  0  0  0  0  0  0
    1.8115  -19.4553   20.8637 C   0  0  0  0  0  0  0  0  0  0  0  0
    0.5162  -17.7903   20.8797 C   0  0  0  0  0  0  0  0  0  0  0  0
    0.8786  -15.8638   20.8845 C   0  0  0  0  0  0  0  0  0  0  0  0
    1.0011  -14.9914   22.2518 N   0  0  0  0  0  0  0  0  0  0  0  0
    2.7729  -14.4238   22.8204 C   0  0  0  0  0  0  0  0  0  0  0  0
    3.1321  -14.0578   21.4669 C   0  0  0  0  0  0  0  0  0  0  0  0
    2.2191  -14.8964   20.3829 N   0  0  0  0  0  0  0  0  0  0  0  0
    0.2283  -23.5113   17.1803 N   0  0  0  0  0  0  0  0  0  0  0  0
   -0.1184  -24.8456   17.5237 C   0  0  0  0  0  0  0  0  0  0  0  0
   -1.4169  -25.3682   17.8127 C   0  0  0  0  0  0  0  0  0  0  0  0
   -3.5882  -26.4104   19.0077 H   0  0  0  0  0  0  0  0  0  0  0  0
   -2.9462  -28.0341   19.2538 H   0  0  0  0  0  0  0  0  0  0  0  0
   -3.4974  -27.5414   17.6340 H   0  0  0  0  0  0  0  0  0  0  0  0
   -0.6411  -28.6027   18.5280 H   0  0  0  0  0  0  0  0  0  0  0  0
    1.6121  -27.7708   17.9075 H   0  0  0  0  0  0  0  0  0  0  0  0
    3.4840  -22.0187   16.7653 H   0  0  0  0  0  0  0  0  0  0  0  0
    1.9853  -21.2197   16.1622 H   0  0  0  0  0  0  0  0  0  0  0  0
    2.7342  -19.8452   18.1296 H   0  0  0  0  0  0  0  0  0  0  0  0
    1.6359  -19.9714   21.7956 H   0  0  0  0  0  0  0  0  0  0  0  0
    2.8260  -19.2199   21.0913 H   0  0  0  0  0  0  0  0  0  0  0  0
    0.0389  -17.6731   19.8943 H   0  0  0  0  0  0  0  0  0  0  0  0
   -0.3242  -17.9599   21.5460 H   0  0  0  0  0  0  0  0  0  0  0  0
    2.8931  -13.7681   23.6745 H   0  0  0  0  0  0  0  0  0  0  0  0
    3.6855  -13.2366   20.9996 H   0  0  0  0  0  0  0  0  0  0  0  0
    2.5553  -14.8426   19.4294 H   0  0  0  0  0  0  0  0  0  0  0  0
   -2.2632  -24.6947   17.7487 H   0  0  0  0  0  0  0  0  0  0  0  0
  1  2  1  0
  2  3  2  0
  3  4  1  0
  4  5  2  0
  5  6  1  0
  6  7  1  0
  7  8  1  0
  8  9  1  0
  9 10  1  0
 10 11  2  0
 10 12  1  0
 12 13  1  0
 13 14  1  0
 14 15  2  0
 15 16  1  0
 16 17  2  0
 17 18  1  0
  7 19  2  0
 19 20  1  0
 20 21  2  0
 21  2  1  0
 20  5  1  0
 18 14  1  0
  1 22  1  0
  1 23  1  0
  1 24  1  0
  3 25  1  0
  4 26  1  0
  8 27  1  0
  8 28  1  0
  9 29  1  0
 12 30  1  0
 12 31  1  0
 13 32  1  0
 13 33  1  0
 16 34  1  0
 17 35  1  0
 18 36  1  0
 21 37  1  0
M  END
>  <Energy>  (1329) 
477.53583645304576

>  <compound_id>  (1329) 
32773

>  <target_id>  (1329) 
1

>  <reference_id>  (1329) 
80

>  <inspiration_ids>  (1329) 
[68, 80]

>  <energy_score>  (1329) 
405.64432077434446

>  <distance_score>  (1329) 
15.738590918692031

>  <path>  (1329) 
/opt/xchem-fragalysis-2/maxwin/BulkDock/SCRATCH/511021/C32773-P80/C32773-P80.minimised.mol

>  <scratch_subdir>  (1329) 
/opt/xchem-fragalysis-2/maxwin/BulkDock/SCRATCH/511021/C32773-P80

>  <fragmenstein_runtime>  (1329) 
14.692529916763306

>  <fragmenstein_outcome>  (1329) 
too moved

>  <fragmenstein_mode>  (1329) 
expansion

>  <fragmenstein_error>  (1329) 


$$$$
C59657-P68
     RDKit          3D

 34 36  0  0  0  0  0  0  0  0999 V2000
   -2.6335  -23.5744   14.1289 O   0  0  0  0  0  0  0  0  0  0  0  0
   -2.5859  -24.1635   15.2061 C   0  0  0  0  0  0  0  0  0  0  0  0
   -1.5050  -23.8231   16.7667 N   0  0  0  0  0  0  0  0  0  0  0  0
   -0.0687  -22.5561   17.1039 C   0  0  0  0  0  0  0  0  0  0  0  0
    1.5135  -21.7141   16.5342 C   0  0  0  0  0  0  0  0  0  0  0  0
    2.1055  -20.2199   16.6764 C   0  0  0  0  0  0  0  0  0  0  0  0
    1.6277  -18.9976   17.1248 C   0  0  0  0  0  0  0  0  0  0  0  0
    2.5058  -18.0222   16.7049 N   0  0  0  0  0  0  0  0  0  0  0  0
    3.5297  -18.6454   16.0649 C   0  0  0  0  0  0  0  0  0  0  0  0
    3.3500  -19.9503   16.0537 N   0  0  0  0  0  0  0  0  0  0  0  0
    0.3670  -22.8168   18.6292 C   0  0  0  0  0  0  0  0  0  0  0  0
    0.5000  -21.9504   19.4829 O   0  0  0  0  0  0  0  0  0  0  0  0
    0.6637  -24.1080   18.9348 O   0  0  0  0  0  0  0  0  0  0  0  0
   -3.6081  -25.5313   15.1707 C   0  0  0  0  0  0  0  0  0  0  0  0
   -3.7115  -26.5196   16.0572 N   0  0  0  0  0  0  0  0  0  0  0  0
   -4.7935  -27.4001   15.8499 C   0  0  0  0  0  0  0  0  0  0  0  0
   -5.1659  -28.5454   16.6196 C   0  0  0  0  0  0  0  0  0  0  0  0
   -6.3551  -29.2369   16.3645 C   0  0  0  0  0  0  0  0  0  0  0  0
   -7.1686  -28.8249   15.3216 C   0  0  0  0  0  0  0  0  0  0  0  0
   -6.7971  -27.7382   14.5096 C   0  0  0  0  0  0  0  0  0  0  0  0
   -5.6021  -27.0347   14.7862 C   0  0  0  0  0  0  0  0  0  0  0  0
   -4.8715  -25.6731   13.9696 S   0  0  0  0  0  0  0  0  0  0  0  0
   -1.7545  -24.4304   17.5169 H   0  0  0  0  0  0  0  0  0  0  0  0
    0.6536  -23.3050   16.8092 H   0  0  0  0  0  0  0  0  0  0  0  0
    1.6587  -21.9436   15.4734 H   0  0  0  0  0  0  0  0  0  0  0  0
    2.3007  -22.2899   17.0562 H   0  0  0  0  0  0  0  0  0  0  0  0
    0.6895  -18.7201   17.5653 H   0  0  0  0  0  0  0  0  0  0  0  0
    2.3888  -17.0259   16.8203 H   0  0  0  0  0  0  0  0  0  0  0  0
    4.3644  -18.1149   15.6303 H   0  0  0  0  0  0  0  0  0  0  0  0
    0.9389  -24.6930   18.2058 H   0  0  0  0  0  0  0  0  0  0  0  0
   -4.5331  -28.8989   17.4284 H   0  0  0  0  0  0  0  0  0  0  0  0
   -6.6254  -30.0950   16.9733 H   0  0  0  0  0  0  0  0  0  0  0  0
   -8.0919  -29.3600   15.1086 H   0  0  0  0  0  0  0  0  0  0  0  0
   -7.4268  -27.4388   13.6757 H   0  0  0  0  0  0  0  0  0  0  0  0
  1  2  2  0
  2  3  1  0
  3  4  1  0
  4  5  1  0
  5  6  1  0
  6  7  2  0
  7  8  1  0
  8  9  1  0
  9 10  2  0
  4 11  1  0
 11 12  2  0
 11 13  1  0
  2 14  1  0
 14 15  2  0
 15 16  1  0
 16 17  2  0
 17 18  1  0
 18 19  2  0
 19 20  1  0
 20 21  2  0
 21 22  1  0
 10  6  1  0
 22 14  1  0
 21 16  1  0
  3 23  1  0
  4 24  1  0
  5 25  1  0
  5 26  1  0
  7 27  1  0
  8 28  1  0
  9 29  1  0
 13 30  1  0
 17 31  1  0
 18 32  1  0
 19 33  1  0
 20 34  1  0
M  END
>  <Energy>  (1330) 
343.59159162196818

>  <compound_id>  (1330) 
59657

>  <target_id>  (1330) 
1

>  <reference_id>  (1330) 
68

>  <inspiration_ids>  (1330) 
[68, 80]

>  <energy_score>  (1330) 
237.28969304132625

>  <distance_score>  (1330) 
15.710937851579839

>  <path>  (1330) 
/opt/xchem-fragalysis-2/maxwin/BulkDock/SCRATCH/511021/C59657-P68/C59657-P68.minimised.mol

>  <scratch_subdir>  (1330) 
/opt/xchem-fragalysis-2/maxwin/BulkDock/SCRATCH/511021/C59657-P68

>  <fragmenstein_runtime>  (1330) 
18.121449947357178

>  <fragmenstein_outcome>  (1330) 
too moved

>  <fragmenstein_mode>  (1330) 
expansion

>  <fragmenstein_error>  (1330) 


$$$$
C59657-P80
     RDKit          3D

 34 36  0  0  0  0  0  0  0  0999 V2000
    2.4265  -18.7043   24.7248 O   0  0  0  0  0  0  0  0  0  0  0  0
    3.5680  -18.8703   24.9171 C   0  0  0  0  0  0  0  0  0  0  0  0
    4.5841  -17.0453   24.7244 N   0  0  0  0  0  0  0  0  0  0  0  0
    4.0992  -15.2921   24.2073 C   0  0  0  0  0  0  0  0  0  0  0  0
    5.7283  -14.4608   23.8971 C   0  0  0  0  0  0  0  0  0  0  0  0
    5.7904  -13.2819   22.9034 C   0  0  0  0  0  0  0  0  0  0  0  0
    6.8945  -12.8181   22.2020 C   0  0  0  0  0  0  0  0  0  0  0  0
    6.4856  -11.6950   21.5345 N   0  0  0  0  0  0  0  0  0  0  0  0
    5.1716  -11.5008   21.8488 C   0  0  0  0  0  0  0  0  0  0  0  0
    4.7195  -12.4364   22.6656 N   0  0  0  0  0  0  0  0  0  0  0  0
    4.0632  -14.1383   25.3956 C   0  0  0  0  0  0  0  0  0  0  0  0
    4.4244  -14.3035   26.5553 O   0  0  0  0  0  0  0  0  0  0  0  0
    3.6146  -12.9229   24.9774 O   0  0  0  0  0  0  0  0  0  0  0  0
    3.9269  -20.9452   25.4005 C   0  0  0  0  0  0  0  0  0  0  0  0
    3.3832  -22.4452   26.3418 N   0  0  0  0  0  0  0  0  0  0  0  0
    3.0378  -24.4429   26.3897 C   0  0  0  0  0  0  0  0  0  0  0  0
    2.7069  -26.1384   27.2601 C   0  0  0  0  0  0  0  0  0  0  0  0
    1.7856  -27.9191   26.7620 C   0  0  0  0  0  0  0  0  0  0  0  0
    0.4643  -27.6787   25.1889 C   0  0  0  0  0  0  0  0  0  0  0  0
    1.1692  -25.9762   24.0793 C   0  0  0  0  0  0  0  0  0  0  0  0
    2.6451  -24.9212   24.8262 C   0  0  0  0  0  0  0  0  0  0  0  0
    4.1038  -23.2734   25.2383 S   0  0  0  0  0  0  0  0  0  0  0  0
    5.5044  -17.2072   24.7913 H   0  0  0  0  0  0  0  0  0  0  0  0
    3.4918  -15.1272   23.3348 H   0  0  0  0  0  0  0  0  0  0  0  0
    6.1411  -14.0700   24.8414 H   0  0  0  0  0  0  0  0  0  0  0  0
    6.4991  -15.2080   23.6651 H   0  0  0  0  0  0  0  0  0  0  0  0
    7.9098  -13.1840   22.1385 H   0  0  0  0  0  0  0  0  0  0  0  0
    7.0498  -11.1145   20.9293 H   0  0  0  0  0  0  0  0  0  0  0  0
    4.5976  -10.6710   21.4573 H   0  0  0  0  0  0  0  0  0  0  0  0
    3.6754  -12.7771   24.0000 H   0  0  0  0  0  0  0  0  0  0  0  0
    3.2864  -26.1667   28.1973 H   0  0  0  0  0  0  0  0  0  0  0  0
    2.1221  -28.8567   27.2288 H   0  0  0  0  0  0  0  0  0  0  0  0
    0.0092  -28.5801   24.6728 H   0  0  0  0  0  0  0  0  0  0  0  0
    1.0377  -25.8406   22.9995 H   0  0  0  0  0  0  0  0  0  0  0  0
  1  2  2  0
  2  3  1  0
  3  4  1  0
  4  5  1  0
  5  6  1  0
  6  7  2  0
  7  8  1  0
  8  9  1  0
  9 10  2  0
  4 11  1  0
 11 12  2  0
 11 13  1  0
  2 14  1  0
 14 15  2  0
 15 16  1  0
 16 17  2  0
 17 18  1  0
 18 19  2  0
 19 20  1  0
 20 21  2  0
 21 22  1  0
 10  6  1  0
 22 14  1  0
 21 16  1  0
  3 23  1  0
  4 24  1  0
  5 25  1  0
  5 26  1  0
  7 27  1  0
  8 28  1  0
  9 29  1  0
 13 30  1  0
 17 31  1  0
 18 32  1  0
 19 33  1  0
 20 34  1  0
M  END
>  <Energy>  (1331) 
2033.4658070391652

>  <compound_id>  (1331) 
59657

>  <target_id>  (1331) 
1

>  <reference_id>  (1331) 
80

>  <inspiration_ids>  (1331) 
[68, 80]

>  <energy_score>  (1331) 
1927.1639084585072

>  <distance_score>  (1331) 
15.464437443904117

>  <path>  (1331) 
/opt/xchem-fragalysis-2/maxwin/BulkDock/SCRATCH/511021/C59657-P80/C59657-P80.minimised.mol

>  <scratch_subdir>  (1331) 
/opt/xchem-fragalysis-2/maxwin/BulkDock/SCRATCH/511021/C59657-P80

>  <fragmenstein_runtime>  (1331) 
11.330735206604004

>  <fragmenstein_outcome>  (1331) 
too moved

>  <fragmenstein_mode>  (1331) 
expansion

>  <fragmenstein_error>  (1331) 


$$$$
C12518-P68
     RDKit          3D

 31 33  0  0  0  0  0  0  0  0999 V2000
   -7.5384  -30.1087   23.7351 O   0  0  0  0  0  0  0  0  0  0  0  0
   -8.4104  -29.5226   23.3006 C   0  0  0  0  0  0  0  0  0  0  0  0
   -8.2893  -27.7618   23.3568 N   0  0  0  0  0  0  0  0  0  0  0  0
   -7.0094  -26.7047   23.8613 C   0  0  0  0  0  0  0  0  0  0  0  0
   -6.2385  -25.4744   22.8337 C   0  0  0  0  0  0  0  0  0  0  0  0
   -5.0228  -24.4579   23.1014 C   0  0  0  0  0  0  0  0  0  0  0  0
   -3.7932  -24.4076   22.4336 C   0  0  0  0  0  0  0  0  0  0  0  0
   -3.1966  -23.2026   22.7353 N   0  0  0  0  0  0  0  0  0  0  0  0
   -4.0508  -22.5401   23.5626 C   0  0  0  0  0  0  0  0  0  0  0  0
   -5.1617  -23.2301   23.7583 N   0  0  0  0  0  0  0  0  0  0  0  0
   -9.8826  -30.8066   22.7652 C   0  0  0  0  0  0  0  0  0  0  0  0
  -10.7041  -30.8988   21.5944 C   0  0  0  0  0  0  0  0  0  0  0  0
  -11.4310  -32.0463   21.1315 C   0  0  0  0  0  0  0  0  0  0  0  0
  -11.2975  -33.2891   21.7595 C   0  0  0  0  0  0  0  0  0  0  0  0
  -11.8357  -34.5043   21.3762 N   0  0  0  0  0  0  0  0  0  0  0  0
  -11.4095  -35.4486   22.1864 C   0  0  0  0  0  0  0  0  0  0  0  0
  -10.3891  -34.9449   23.4632 S   0  0  0  0  0  0  0  0  0  0  0  0
  -10.4929  -33.3284   22.8781 C   0  0  0  0  0  0  0  0  0  0  0  0
   -9.8462  -32.1579   23.3438 C   0  0  0  0  0  0  0  0  0  0  0  0
   -9.1847  -27.3658   23.0140 H   0  0  0  0  0  0  0  0  0  0  0  0
   -7.4332  -26.1827   24.7243 H   0  0  0  0  0  0  0  0  0  0  0  0
   -6.2191  -27.3873   24.1855 H   0  0  0  0  0  0  0  0  0  0  0  0
   -5.8912  -26.0512   21.9659 H   0  0  0  0  0  0  0  0  0  0  0  0
   -7.0649  -24.8192   22.5282 H   0  0  0  0  0  0  0  0  0  0  0  0
   -3.3290  -25.1037   21.7489 H   0  0  0  0  0  0  0  0  0  0  0  0
   -2.2867  -22.8867   22.4281 H   0  0  0  0  0  0  0  0  0  0  0  0
   -3.8236  -21.5785   23.9989 H   0  0  0  0  0  0  0  0  0  0  0  0
  -10.8263  -30.0739   20.9320 H   0  0  0  0  0  0  0  0  0  0  0  0
  -12.0224  -31.9740   20.2208 H   0  0  0  0  0  0  0  0  0  0  0  0
  -11.6929  -36.4858   22.0630 H   0  0  0  0  0  0  0  0  0  0  0  0
   -9.1816  -32.3485   24.1667 H   0  0  0  0  0  0  0  0  0  0  0  0
  1  2  2  0
  2  3  1  0
  3  4  1  0
  4  5  1  0
  5  6  1  0
  6  7  2  0
  7  8  1  0
  8  9  1  0
  9 10  2  0
  2 11  1  0
 11 12  2  0
 12 13  1  0
 13 14  2  0
 14 15  1  0
 15 16  2  0
 16 17  1  0
 17 18  1  0
 18 19  2  0
 10  6  1  0
 19 11  1  0
 18 14  1  0
  3 20  1  0
  4 21  1  0
  4 22  1  0
  5 23  1  0
  5 24  1  0
  7 25  1  0
  8 26  1  0
  9 27  1  0
 12 28  1  0
 13 29  1  0
 16 30  1  0
 19 31  1  0
M  END
>  <Energy>  (1332) 
239.01701357516626

>  <compound_id>  (1332) 
12518

>  <target_id>  (1332) 
1

>  <reference_id>  (1332) 
68

>  <inspiration_ids>  (1332) 
[68, 80]

>  <energy_score>  (1332) 
136.54940137897086

>  <distance_score>  (1332) 
17.013496052651753

>  <path>  (1332) 
/opt/xchem-fragalysis-2/maxwin/BulkDock/SCRATCH/511021/C12518-P68/C12518-P68.minimised.mol

>  <scratch_subdir>  (1332) 
/opt/xchem-fragalysis-2/maxwin/BulkDock/SCRATCH/511021/C12518-P68

>  <fragmenstein_runtime>  (1332) 
16.727454900741577

>  <fragmenstein_outcome>  (1332) 
too moved

>  <fragmenstein_mode>  (1332) 
expansion

>  <fragmenstein_error>  (1332) 


$$$$
C12518-P80
     RDKit          3D

 31 33  0  0  0  0  0  0  0  0999 V2000
    3.9001  -21.7149   25.8753 O   0  0  0  0  0  0  0  0  0  0  0  0
    3.1393  -21.0874   25.1866 C   0  0  0  0  0  0  0  0  0  0  0  0
    3.2862  -19.7536   24.5597 N   0  0  0  0  0  0  0  0  0  0  0  0
    4.4923  -18.7920   24.5015 C   0  0  0  0  0  0  0  0  0  0  0  0
    4.3645  -17.2325   24.7978 C   0  0  0  0  0  0  0  0  0  0  0  0
    5.3837  -16.2072   24.2481 C   0  0  0  0  0  0  0  0  0  0  0  0
    6.7287  -16.2867   23.9309 C   0  0  0  0  0  0  0  0  0  0  0  0
    7.1162  -15.0272   23.5180 N   0  0  0  0  0  0  0  0  0  0  0  0
    6.0251  -14.2137   23.6007 C   0  0  0  0  0  0  0  0  0  0  0  0
    4.9746  -14.8873   24.0238 N   0  0  0  0  0  0  0  0  0  0  0  0
    1.8396  -21.9658   24.8661 C   0  0  0  0  0  0  0  0  0  0  0  0
    0.5303  -21.4973   24.7419 C   0  0  0  0  0  0  0  0  0  0  0  0
   -0.5860  -22.3854   24.5582 C   0  0  0  0  0  0  0  0  0  0  0  0
   -0.4283  -23.7935   24.4772 C   0  0  0  0  0  0  0  0  0  0  0  0
   -1.4279  -24.7532   24.3058 N   0  0  0  0  0  0  0  0  0  0  0  0
   -0.8892  -25.9527   24.2685 C   0  0  0  0  0  0  0  0  0  0  0  0
    0.8167  -26.0136   24.4387 S   0  0  0  0  0  0  0  0  0  0  0  0
    0.8736  -24.2829   24.5832 C   0  0  0  0  0  0  0  0  0  0  0  0
    1.9845  -23.3944   24.7836 C   0  0  0  0  0  0  0  0  0  0  0  0
    2.4689  -19.5677   23.9698 H   0  0  0  0  0  0  0  0  0  0  0  0
    5.2492  -19.2158   25.1712 H   0  0  0  0  0  0  0  0  0  0  0  0
    4.8769  -18.9091   23.4829 H   0  0  0  0  0  0  0  0  0  0  0  0
    3.3763  -16.9041   24.4775 H   0  0  0  0  0  0  0  0  0  0  0  0
    4.3603  -17.1166   25.8898 H   0  0  0  0  0  0  0  0  0  0  0  0
    7.4352  -17.1042   23.9710 H   0  0  0  0  0  0  0  0  0  0  0  0
    8.0434  -14.7522   23.2231 H   0  0  0  0  0  0  0  0  0  0  0  0
    6.0467  -13.1645   23.3371 H   0  0  0  0  0  0  0  0  0  0  0  0
    0.3413  -20.4296   24.8125 H   0  0  0  0  0  0  0  0  0  0  0  0
   -1.5893  -21.9749   24.4799 H   0  0  0  0  0  0  0  0  0  0  0  0
   -1.4798  -26.8505   24.1379 H   0  0  0  0  0  0  0  0  0  0  0  0
    2.9812  -23.8239   24.8858 H   0  0  0  0  0  0  0  0  0  0  0  0
  1  2  2  0
  2  3  1  0
  3  4  1  0
  4  5  1  0
  5  6  1  0
  6  7  2  0
  7  8  1  0
  8  9  1  0
  9 10  2  0
  2 11  1  0
 11 12  2  0
 12 13  1  0
 13 14  2  0
 14 15  1  0
 15 16  2  0
 16 17  1  0
 17 18  1  0
 18 19  2  0
 10  6  1  0
 19 11  1  0
 18 14  1  0
  3 20  1  0
  4 21  1  0
  4 22  1  0
  5 23  1  0
  5 24  1  0
  7 25  1  0
  8 26  1  0
  9 27  1  0
 12 28  1  0
 13 29  1  0
 16 30  1  0
 19 31  1  0
M  END
>  <Energy>  (1333) 
50.393789497253863

>  <compound_id>  (1333) 
12518

>  <target_id>  (1333) 
1

>  <reference_id>  (1333) 
80

>  <inspiration_ids>  (1333) 
[68, 80]

>  <energy_score>  (1333) 
-52.073822698944696

>  <distance_score>  (1333) 
16.853476031144172

>  <path>  (1333) 
/opt/xchem-fragalysis-2/maxwin/BulkDock/SCRATCH/511021/C12518-P80/C12518-P80.minimised.mol

>  <scratch_subdir>  (1333) 
/opt/xchem-fragalysis-2/maxwin/BulkDock/SCRATCH/511021/C12518-P80

>  <fragmenstein_runtime>  (1333) 
13.582988977432251

>  <fragmenstein_outcome>  (1333) 
too moved

>  <fragmenstein_mode>  (1333) 
expansion

>  <fragmenstein_error>  (1333) 


$$$$
C32774-P68
     RDKit          3D

 31 33  0  0  0  0  0  0  0  0999 V2000
    3.7718  -22.2541   20.0685 C   0  0  0  0  0  0  0  0  0  0  0  0
    3.2008  -22.3506   18.6426 C   0  0  0  0  0  0  0  0  0  0  0  0
    1.9608  -23.2234   18.6835 N   0  0  0  0  0  0  0  0  0  0  0  0
    0.8904  -23.3201   19.6729 C   0  0  0  0  0  0  0  0  0  0  0  0
    0.6803  -22.6733   20.6629 O   0  0  0  0  0  0  0  0  0  0  0  0
   -0.1368  -24.5186   19.5499 C   0  0  0  0  0  0  0  0  0  0  0  0
   -1.4236  -24.3673   20.1174 C   0  0  0  0  0  0  0  0  0  0  0  0
   -2.3090  -25.4547   20.3664 C   0  0  0  0  0  0  0  0  0  0  0  0
   -1.9159  -26.7759   20.0776 C   0  0  0  0  0  0  0  0  0  0  0  0
   -2.6469  -27.9360   20.3314 N   0  0  0  0  0  0  0  0  0  0  0  0
   -1.9516  -28.9845   19.9516 C   0  0  0  0  0  0  0  0  0  0  0  0
   -0.4131  -28.6570   19.2679 S   0  0  0  0  0  0  0  0  0  0  0  0
   -0.6523  -26.9520   19.5030 C   0  0  0  0  0  0  0  0  0  0  0  0
    0.2369  -25.8475   19.2302 C   0  0  0  0  0  0  0  0  0  0  0  0
    3.4012  -20.9783   17.9229 C   0  0  0  0  0  0  0  0  0  0  0  0
    4.5520  -20.2920   17.9677 N   0  0  0  0  0  0  0  0  0  0  0  0
    4.4483  -19.2279   17.1041 C   0  0  0  0  0  0  0  0  0  0  0  0
    3.2147  -19.2425   16.5162 C   0  0  0  0  0  0  0  0  0  0  0  0
    2.5470  -20.3208   17.0635 N   0  0  0  0  0  0  0  0  0  0  0  0
    3.8057  -23.2404   20.5451 H   0  0  0  0  0  0  0  0  0  0  0  0
    4.7911  -21.8531   20.0720 H   0  0  0  0  0  0  0  0  0  0  0  0
    3.1569  -21.6020   20.6969 H   0  0  0  0  0  0  0  0  0  0  0  0
    3.8952  -23.0017   18.0906 H   0  0  0  0  0  0  0  0  0  0  0  0
    1.8707  -23.9849   18.0233 H   0  0  0  0  0  0  0  0  0  0  0  0
   -1.7402  -23.3729   20.4374 H   0  0  0  0  0  0  0  0  0  0  0  0
   -3.2767  -25.2728   20.8253 H   0  0  0  0  0  0  0  0  0  0  0  0
   -2.3177  -29.9980   20.0582 H   0  0  0  0  0  0  0  0  0  0  0  0
    1.2385  -26.0657   18.8704 H   0  0  0  0  0  0  0  0  0  0  0  0
    5.2631  -18.5331   16.9510 H   0  0  0  0  0  0  0  0  0  0  0  0
    2.7639  -18.6149   15.7598 H   0  0  0  0  0  0  0  0  0  0  0  0
    1.6162  -20.6252   16.8134 H   0  0  0  0  0  0  0  0  0  0  0  0
  1  2  1  0
  2  3  1  0
  3  4  1  0
  4  5  2  0
  4  6  1  0
  6  7  2  0
  7  8  1  0
  8  9  2  0
  9 10  1  0
 10 11  2  0
 11 12  1  0
 12 13  1  0
 13 14  2  0
  2 15  1  0
 15 16  2  0
 16 17  1  0
 17 18  2  0
 18 19  1  0
 14  6  1  0
 19 15  1  0
 13  9  1  0
  1 20  1  0
  1 21  1  0
  1 22  1  0
  2 23  1  0
  3 24  1  0
  7 25  1  0
  8 26  1  0
 11 27  1  0
 14 28  1  0
 17 29  1  0
 18 30  1  0
 19 31  1  0
M  END
>  <Energy>  (1334) 
48.196458297993267

>  <compound_id>  (1334) 
32774

>  <target_id>  (1334) 
1

>  <reference_id>  (1334) 
68

>  <inspiration_ids>  (1334) 
[68, 80]

>  <energy_score>  (1334) 
-17.886116944660102

>  <distance_score>  (1334) 
16.069800282531016

>  <path>  (1334) 
/opt/xchem-fragalysis-2/maxwin/BulkDock/SCRATCH/511021/C32774-P68/C32774-P68.minimised.mol

>  <scratch_subdir>  (1334) 
/opt/xchem-fragalysis-2/maxwin/BulkDock/SCRATCH/511021/C32774-P68

>  <fragmenstein_runtime>  (1334) 
21.556134462356567

>  <fragmenstein_outcome>  (1334) 
too moved

>  <fragmenstein_mode>  (1334) 
expansion

>  <fragmenstein_error>  (1334) 


$$$$
C32774-P80
     RDKit          3D

 31 33  0  0  0  0  0  0  0  0999 V2000
   -2.8139  -20.9145   19.8840 C   0  0  0  0  0  0  0  0  0  0  0  0
   -1.9482  -21.8367   19.0193 C   0  0  0  0  0  0  0  0  0  0  0  0
   -2.1211  -23.2349   19.5074 N   0  0  0  0  0  0  0  0  0  0  0  0
   -3.1395  -24.2354   19.1987 C   0  0  0  0  0  0  0  0  0  0  0  0
   -4.0474  -24.2095   18.4130 O   0  0  0  0  0  0  0  0  0  0  0  0
   -3.2076  -25.5351   20.0462 C   0  0  0  0  0  0  0  0  0  0  0  0
   -2.9558  -25.5803   21.4190 C   0  0  0  0  0  0  0  0  0  0  0  0
   -3.2502  -26.7383   22.1928 C   0  0  0  0  0  0  0  0  0  0  0  0
   -3.8258  -27.8918   21.6109 C   0  0  0  0  0  0  0  0  0  0  0  0
   -4.1740  -29.0665   22.2667 N   0  0  0  0  0  0  0  0  0  0  0  0
   -4.7121  -29.9083   21.4115 C   0  0  0  0  0  0  0  0  0  0  0  0
   -4.7947  -29.3720   19.7830 S   0  0  0  0  0  0  0  0  0  0  0  0
   -4.0881  -27.8573   20.2409 C   0  0  0  0  0  0  0  0  0  0  0  0
   -3.7917  -26.7014   19.4607 C   0  0  0  0  0  0  0  0  0  0  0  0
   -0.5386  -21.2312   18.8984 C   0  0  0  0  0  0  0  0  0  0  0  0
    0.4724  -21.2965   19.7452 N   0  0  0  0  0  0  0  0  0  0  0  0
    1.5025  -20.5855   19.1752 C   0  0  0  0  0  0  0  0  0  0  0  0
    1.1033  -19.9877   18.0061 C   0  0  0  0  0  0  0  0  0  0  0  0
   -0.1993  -20.3746   17.8532 N   0  0  0  0  0  0  0  0  0  0  0  0
   -2.4533  -20.8939   20.9191 H   0  0  0  0  0  0  0  0  0  0  0  0
   -2.8049  -19.8866   19.5047 H   0  0  0  0  0  0  0  0  0  0  0  0
   -3.8542  -21.2577   19.9036 H   0  0  0  0  0  0  0  0  0  0  0  0
   -2.3873  -21.8423   18.0129 H   0  0  0  0  0  0  0  0  0  0  0  0
   -1.5608  -23.5618   20.2848 H   0  0  0  0  0  0  0  0  0  0  0  0
   -2.5754  -24.7036   21.9377 H   0  0  0  0  0  0  0  0  0  0  0  0
   -3.0544  -26.7385   23.2620 H   0  0  0  0  0  0  0  0  0  0  0  0
   -5.0788  -30.8828   21.7110 H   0  0  0  0  0  0  0  0  0  0  0  0
   -4.0547  -26.6946   18.4041 H   0  0  0  0  0  0  0  0  0  0  0  0
    2.4706  -20.5667   19.6529 H   0  0  0  0  0  0  0  0  0  0  0  0
    1.6214  -19.3740   17.2840 H   0  0  0  0  0  0  0  0  0  0  0  0
   -0.8063  -20.1391   17.0799 H   0  0  0  0  0  0  0  0  0  0  0  0
  1  2  1  0
  2  3  1  0
  3  4  1  0
  4  5  2  0
  4  6  1  0
  6  7  2  0
  7  8  1  0
  8  9  2  0
  9 10  1  0
 10 11  2  0
 11 12  1  0
 12 13  1  0
 13 14  2  0
  2 15  1  0
 15 16  2  0
 16 17  1  0
 17 18  2  0
 18 19  1  0
 14  6  1  0
 19 15  1  0
 13  9  1  0
  1 20  1  0
  1 21  1  0
  1 22  1  0
  2 23  1  0
  3 24  1  0
  7 25  1  0
  8 26  1  0
 11 27  1  0
 14 28  1  0
 17 29  1  0
 18 30  1  0
 19 31  1  0
M  END
>  <Energy>  (1335) 
28.444682628063564

>  <compound_id>  (1335) 
32774

>  <target_id>  (1335) 
1

>  <reference_id>  (1335) 
80

>  <inspiration_ids>  (1335) 
[68, 80]

>  <energy_score>  (1335) 
-37.637892614588736

>  <distance_score>  (1335) 
15.685752280600587

>  <path>  (1335) 
/opt/xchem-fragalysis-2/maxwin/BulkDock/SCRATCH/511021/C32774-P80/C32774-P80.minimised.mol

>  <scratch_subdir>  (1335) 
/opt/xchem-fragalysis-2/maxwin/BulkDock/SCRATCH/511021/C32774-P80

>  <fragmenstein_runtime>  (1335) 
17.843310356140137

>  <fragmenstein_outcome>  (1335) 
too moved

>  <fragmenstein_mode>  (1335) 
expansion

>  <fragmenstein_error>  (1335) 


$$$$
C20282-P68
     RDKit          3D

 39 42  0  0  0  0  0  0  0  0999 V2000
    0.3624  -24.3081   22.6539 O   0  0  0  0  0  0  0  0  0  0  0  0
   -0.6277  -23.7468   23.0184 C   0  0  0  0  0  0  0  0  0  0  0  0
   -0.9935  -22.3262   22.9634 N   0  0  0  0  0  0  0  0  0  0  0  0
   -0.1681  -21.0575   22.5068 C   0  0  0  0  0  0  0  0  0  0  0  0
    0.8404  -20.4407   21.3679 C   0  0  0  0  0  0  0  0  0  0  0  0
    2.4231  -20.5689   21.1899 C   0  0  0  0  0  0  0  0  0  0  0  0
    2.7759  -21.7412   20.4740 C   0  0  0  0  0  0  0  0  0  0  0  0
    4.3584  -22.2422   20.9244 N   0  0  0  0  0  0  0  0  0  0  0  0
    5.1643  -21.2970   21.4156 C   0  0  0  0  0  0  0  0  0  0  0  0
    4.0477  -19.8288   21.6870 N   0  0  0  0  0  0  0  0  0  0  0  0
   -1.6841  -24.8011   23.5403 C   0  0  0  0  0  0  0  0  0  0  0  0
   -2.7835  -24.5941   24.3736 C   0  0  0  0  0  0  0  0  0  0  0  0
   -3.5467  -25.6952   24.8873 C   0  0  0  0  0  0  0  0  0  0  0  0
   -3.1986  -27.0420   24.6029 C   0  0  0  0  0  0  0  0  0  0  0  0
   -3.7128  -28.2046   25.1815 N   0  0  0  0  0  0  0  0  0  0  0  0
   -2.9953  -29.2324   24.7694 C   0  0  0  0  0  0  0  0  0  0  0  0
   -3.0034  -30.4912   25.3950 N   0  0  0  0  0  0  0  0  0  0  0  0
   -2.2506  -31.6211   25.0967 C   0  0  0  0  0  0  0  0  0  0  0  0
   -2.5305  -32.6176   26.0045 C   0  0  0  0  0  0  0  0  0  0  0  0
   -3.4688  -32.0975   26.9148 C   0  0  0  0  0  0  0  0  0  0  0  0
   -3.7494  -30.8085   26.5210 C   0  0  0  0  0  0  0  0  0  0  0  0
   -1.9130  -28.9377   23.4887 S   0  0  0  0  0  0  0  0  0  0  0  0
   -2.1592  -27.2430   23.6980 C   0  0  0  0  0  0  0  0  0  0  0  0
   -1.4392  -26.1553   23.1469 C   0  0  0  0  0  0  0  0  0  0  0  0
   -1.8755  -22.1925   23.4390 H   0  0  0  0  0  0  0  0  0  0  0  0
   -1.0457  -20.4268   22.3110 H   0  0  0  0  0  0  0  0  0  0  0  0
    0.1991  -20.6426   23.4122 H   0  0  0  0  0  0  0  0  0  0  0  0
    0.4240  -20.8330   20.4307 H   0  0  0  0  0  0  0  0  0  0  0  0
    0.6146  -19.3892   21.3571 H   0  0  0  0  0  0  0  0  0  0  0  0
    2.1569  -22.4038   19.8782 H   0  0  0  0  0  0  0  0  0  0  0  0
    6.1699  -20.9248   21.1788 H   0  0  0  0  0  0  0  0  0  0  0  0
    4.7263  -19.2022   21.2875 H   0  0  0  0  0  0  0  0  0  0  0  0
   -3.0505  -23.5929   24.6994 H   0  0  0  0  0  0  0  0  0  0  0  0
   -4.3626  -25.5050   25.5803 H   0  0  0  0  0  0  0  0  0  0  0  0
   -1.5726  -31.6349   24.2521 H   0  0  0  0  0  0  0  0  0  0  0  0
   -2.0906  -33.6057   26.0099 H   0  0  0  0  0  0  0  0  0  0  0  0
   -3.8923  -32.6066   27.7694 H   0  0  0  0  0  0  0  0  0  0  0  0
   -4.4078  -30.0648   26.9505 H   0  0  0  0  0  0  0  0  0  0  0  0
   -0.6173  -26.3772   22.4640 H   0  0  0  0  0  0  0  0  0  0  0  0
  1  2  2  0
  2  3  1  0
  3  4  1  0
  4  5  1  0
  5  6  1  0
  6  7  2  0
  7  8  1  0
  8  9  2  0
  9 10  1  0
  2 11  1  0
 11 12  2  0
 12 13  1  0
 13 14  2  0
 14 15  1  0
 15 16  2  0
 16 17  1  0
 17 18  1  0
 18 19  2  0
 19 20  1  0
 20 21  2  0
 16 22  1  0
 22 23  1  0
 23 24  2  0
 10  6  1  0
 24 11  1  0
 23 14  1  0
 21 17  1  0
  3 25  1  0
  4 26  1  0
  4 27  1  0
  5 28  1  0
  5 29  1  0
  7 30  1  0
  9 31  1  0
 10 32  1  0
 12 33  1  0
 13 34  1  0
 18 35  1  0
 19 36  1  0
 20 37  1  0
 21 38  1  0
 24 39  1  0
M  END
>  <Energy>  (1336) 
314.21656777233483

>  <compound_id>  (1336) 
20282

>  <target_id>  (1336) 
1

>  <reference_id>  (1336) 
68

>  <inspiration_ids>  (1336) 
[68, 80]

>  <energy_score>  (1336) 
197.11022221776295

>  <distance_score>  (1336) 
16.114728866110028

>  <path>  (1336) 
/opt/xchem-fragalysis-2/maxwin/BulkDock/SCRATCH/511021/C20282-P68/C20282-P68.minimised.mol

>  <scratch_subdir>  (1336) 
/opt/xchem-fragalysis-2/maxwin/BulkDock/SCRATCH/511021/C20282-P68

>  <fragmenstein_runtime>  (1336) 
25.2549467086792

>  <fragmenstein_outcome>  (1336) 
too moved

>  <fragmenstein_mode>  (1336) 
expansion

>  <fragmenstein_error>  (1336) 


$$$$
C20282-P80
     RDKit          3D

 39 42  0  0  0  0  0  0  0  0999 V2000
   -3.0427  -20.9718   22.0695 O   0  0  0  0  0  0  0  0  0  0  0  0
   -2.2211  -20.7136   22.9621 C   0  0  0  0  0  0  0  0  0  0  0  0
   -1.0488  -19.3385   23.0584 N   0  0  0  0  0  0  0  0  0  0  0  0
   -0.5807  -17.8814   21.7345 C   0  0  0  0  0  0  0  0  0  0  0  0
    0.1477  -15.9036   21.8525 C   0  0  0  0  0  0  0  0  0  0  0  0
    1.2344  -14.6634   23.2101 C   0  0  0  0  0  0  0  0  0  0  0  0
    2.8051  -14.0039   23.3898 C   0  0  0  0  0  0  0  0  0  0  0  0
    2.6835  -12.8095   24.2078 N   0  0  0  0  0  0  0  0  0  0  0  0
    1.4447  -12.6506   24.6856 C   0  0  0  0  0  0  0  0  0  0  0  0
    0.4805  -13.6302   24.2489 N   0  0  0  0  0  0  0  0  0  0  0  0
   -2.2287  -21.8442   24.0017 C   0  0  0  0  0  0  0  0  0  0  0  0
   -3.4635  -22.0571   24.6652 C   0  0  0  0  0  0  0  0  0  0  0  0
   -3.9889  -23.3514   24.9799 C   0  0  0  0  0  0  0  0  0  0  0  0
   -3.3229  -24.5224   24.5592 C   0  0  0  0  0  0  0  0  0  0  0  0
   -3.7683  -25.8399   24.6786 N   0  0  0  0  0  0  0  0  0  0  0  0
   -2.9090  -26.6406   24.0834 C   0  0  0  0  0  0  0  0  0  0  0  0
   -3.1043  -28.0227   23.9377 N   0  0  0  0  0  0  0  0  0  0  0  0
   -4.2350  -28.7069   24.3533 C   0  0  0  0  0  0  0  0  0  0  0  0
   -4.1323  -30.0297   23.9873 C   0  0  0  0  0  0  0  0  0  0  0  0
   -2.8781  -30.1962   23.3692 C   0  0  0  0  0  0  0  0  0  0  0  0
   -2.2652  -28.9627   23.3547 C   0  0  0  0  0  0  0  0  0  0  0  0
   -1.5110  -25.9094   23.4407 S   0  0  0  0  0  0  0  0  0  0  0  0
   -2.1005  -24.3473   23.9069 C   0  0  0  0  0  0  0  0  0  0  0  0
   -1.5442  -23.0445   23.6532 C   0  0  0  0  0  0  0  0  0  0  0  0
   -0.4539  -19.4528   23.8655 H   0  0  0  0  0  0  0  0  0  0  0  0
    0.3151  -18.2656   21.2842 H   0  0  0  0  0  0  0  0  0  0  0  0
   -1.3400  -17.8913   20.9371 H   0  0  0  0  0  0  0  0  0  0  0  0
   -0.7196  -15.2634   22.0878 H   0  0  0  0  0  0  0  0  0  0  0  0
    0.6376  -15.8935   20.8671 H   0  0  0  0  0  0  0  0  0  0  0  0
    3.7031  -14.2571   22.8497 H   0  0  0  0  0  0  0  0  0  0  0  0
    1.1137  -11.8407   25.3222 H   0  0  0  0  0  0  0  0  0  0  0  0
   -0.5309  -13.5796   24.2933 H   0  0  0  0  0  0  0  0  0  0  0  0
   -4.1140  -21.1977   24.8394 H   0  0  0  0  0  0  0  0  0  0  0  0
   -4.9634  -23.4387   25.4535 H   0  0  0  0  0  0  0  0  0  0  0  0
   -5.0393  -28.1756   24.8457 H   0  0  0  0  0  0  0  0  0  0  0  0
   -4.8852  -30.7926   24.1389 H   0  0  0  0  0  0  0  0  0  0  0  0
   -2.4739  -31.1153   22.9640 H   0  0  0  0  0  0  0  0  0  0  0  0
   -1.3003  -28.6820   22.9564 H   0  0  0  0  0  0  0  0  0  0  0  0
   -0.6315  -22.9844   23.0661 H   0  0  0  0  0  0  0  0  0  0  0  0
  1  2  2  0
  2  3  1  0
  3  4  1  0
  4  5  1  0
  5  6  1  0
  6  7  2  0
  7  8  1  0
  8  9  2  0
  9 10  1  0
  2 11  1  0
 11 12  2  0
 12 13  1  0
 13 14  2  0
 14 15  1  0
 15 16  2  0
 16 17  1  0
 17 18  1  0
 18 19  2  0
 19 20  1  0
 20 21  2  0
 16 22  1  0
 22 23  1  0
 23 24  2  0
 10  6  1  0
 24 11  1  0
 23 14  1  0
 21 17  1  0
  3 25  1  0
  4 26  1  0
  4 27  1  0
  5 28  1  0
  5 29  1  0
  7 30  1  0
  9 31  1  0
 10 32  1  0
 12 33  1  0
 13 34  1  0
 18 35  1  0
 19 36  1  0
 20 37  1  0
 21 38  1  0
 24 39  1  0
M  END
>  <Energy>  (1337) 
503.23357798620907

>  <compound_id>  (1337) 
20282

>  <target_id>  (1337) 
1

>  <reference_id>  (1337) 
80

>  <inspiration_ids>  (1337) 
[68, 80]

>  <energy_score>  (1337) 
386.12723243162816

>  <distance_score>  (1337) 
15.550082429601597

>  <path>  (1337) 
/opt/xchem-fragalysis-2/maxwin/BulkDock/SCRATCH/511021/C20282-P80/C20282-P80.minimised.mol

>  <scratch_subdir>  (1337) 
/opt/xchem-fragalysis-2/maxwin/BulkDock/SCRATCH/511021/C20282-P80

>  <fragmenstein_runtime>  (1337) 
11.46276307106018

>  <fragmenstein_outcome>  (1337) 
too moved

>  <fragmenstein_mode>  (1337) 
expansion

>  <fragmenstein_error>  (1337) 


$$$$
C59658-P68
     RDKit          3D

 36 38  0  0  0  0  0  0  0  0999 V2000
   -3.7996  -24.6186   14.8668 O   0  0  0  0  0  0  0  0  0  0  0  0
   -3.2363  -25.4522   15.5873 C   0  0  0  0  0  0  0  0  0  0  0  0
   -3.6867  -26.9882   15.3483 C   0  0  0  0  0  0  0  0  0  0  0  0
   -5.2181  -27.2536   15.2761 C   0  0  0  0  0  0  0  0  0  0  0  0
   -5.7806  -27.4901   16.6126 N   0  0  0  0  0  0  0  0  0  0  0  0
   -6.8867  -28.2466   16.9081 C   0  0  0  0  0  0  0  0  0  0  0  0
   -7.2883  -28.3375   18.1606 N   0  0  0  0  0  0  0  0  0  0  0  0
   -8.5567  -28.8996   18.2409 C   0  0  0  0  0  0  0  0  0  0  0  0
   -9.3360  -29.0816   19.4056 C   0  0  0  0  0  0  0  0  0  0  0  0
  -10.6216  -29.6272   19.3054 C   0  0  0  0  0  0  0  0  0  0  0  0
  -11.1675  -29.9306   18.0644 C   0  0  0  0  0  0  0  0  0  0  0  0
  -10.4098  -29.7733   16.8984 C   0  0  0  0  0  0  0  0  0  0  0  0
   -9.0954  -29.2834   17.0134 C   0  0  0  0  0  0  0  0  0  0  0  0
   -7.8951  -29.0693   15.7920 S   0  0  0  0  0  0  0  0  0  0  0  0
   -2.0886  -25.2270   16.9362 N   0  0  0  0  0  0  0  0  0  0  0  0
   -1.4531  -23.7454   17.7113 C   0  0  0  0  0  0  0  0  0  0  0  0
    0.1260  -23.0206   17.9062 C   0  0  0  0  0  0  0  0  0  0  0  0
    0.8282  -22.7410   19.0788 C   0  0  0  0  0  0  0  0  0  0  0  0
    1.9030  -21.9303   18.7647 N   0  0  0  0  0  0  0  0  0  0  0  0
    1.8561  -21.7155   17.4311 C   0  0  0  0  0  0  0  0  0  0  0  0
    0.8358  -22.3639   16.9131 N   0  0  0  0  0  0  0  0  0  0  0  0
   -3.2853  -27.2164   14.3494 H   0  0  0  0  0  0  0  0  0  0  0  0
   -3.2305  -27.7170   16.0221 H   0  0  0  0  0  0  0  0  0  0  0  0
   -5.7408  -26.4172   14.8006 H   0  0  0  0  0  0  0  0  0  0  0  0
   -5.3620  -28.1431   14.6524 H   0  0  0  0  0  0  0  0  0  0  0  0
   -5.8917  -26.6018   17.0896 H   0  0  0  0  0  0  0  0  0  0  0  0
   -8.9484  -28.7873   20.3745 H   0  0  0  0  0  0  0  0  0  0  0  0
  -11.1880  -29.8444   20.2024 H   0  0  0  0  0  0  0  0  0  0  0  0
  -12.1658  -30.3568   17.9991 H   0  0  0  0  0  0  0  0  0  0  0  0
  -10.8136  -30.0664   15.9342 H   0  0  0  0  0  0  0  0  0  0  0  0
   -1.7610  -26.0864   17.2507 H   0  0  0  0  0  0  0  0  0  0  0  0
   -1.1331  -24.4244   18.5130 H   0  0  0  0  0  0  0  0  0  0  0  0
   -2.2663  -23.2641   18.1276 H   0  0  0  0  0  0  0  0  0  0  0  0
    0.6785  -23.0344   20.1043 H   0  0  0  0  0  0  0  0  0  0  0  0
    2.6398  -21.6357   19.3975 H   0  0  0  0  0  0  0  0  0  0  0  0
    2.5699  -21.1111   16.8893 H   0  0  0  0  0  0  0  0  0  0  0  0
  1  2  2  0
  2  3  1  0
  3  4  1  0
  4  5  1  0
  5  6  1  0
  6  7  2  0
  7  8  1  0
  8  9  2  0
  9 10  1  0
 10 11  2  0
 11 12  1  0
 12 13  2  0
 13 14  1  0
  2 15  1  0
 15 16  1  0
 16 17  1  0
 17 18  2  0
 18 19  1  0
 19 20  1  0
 20 21  2  0
 14  6  1  0
 21 17  1  0
 13  8  1  0
  3 22  1  0
  3 23  1  0
  4 24  1  0
  4 25  1  0
  5 26  1  0
  9 27  1  0
 10 28  1  0
 11 29  1  0
 12 30  1  0
 15 31  1  0
 16 32  1  0
 16 33  1  0
 18 34  1  0
 19 35  1  0
 20 36  1  0
M  END
>  <Energy>  (1338) 
124.22952691042181

>  <compound_id>  (1338) 
59658

>  <target_id>  (1338) 
1

>  <reference_id>  (1338) 
68

>  <inspiration_ids>  (1338) 
[68, 80]

>  <energy_score>  (1338) 
109.61927885126659

>  <distance_score>  (1338) 
16.177331121707955

>  <path>  (1338) 
/opt/xchem-fragalysis-2/maxwin/BulkDock/SCRATCH/511021/C59658-P68/C59658-P68.minimised.mol

>  <scratch_subdir>  (1338) 
/opt/xchem-fragalysis-2/maxwin/BulkDock/SCRATCH/511021/C59658-P68

>  <fragmenstein_runtime>  (1338) 
17.198673248291016

>  <fragmenstein_outcome>  (1338) 
too moved

>  <fragmenstein_mode>  (1338) 
expansion

>  <fragmenstein_error>  (1338) 


$$$$
C59658-P80
     RDKit          3D

 36 38  0  0  0  0  0  0  0  0999 V2000
    7.3072  -17.4983   22.6282 O   0  0  0  0  0  0  0  0  0  0  0  0
    7.0235  -17.2109   21.5039 C   0  0  0  0  0  0  0  0  0  0  0  0
    6.0590  -18.2347   20.6581 C   0  0  0  0  0  0  0  0  0  0  0  0
    4.4310  -19.2346   21.1102 C   0  0  0  0  0  0  0  0  0  0  0  0
    3.3100  -20.5542   20.0425 N   0  0  0  0  0  0  0  0  0  0  0  0
    3.0689  -20.9455   18.4541 C   0  0  0  0  0  0  0  0  0  0  0  0
    1.9506  -21.3946   17.9015 N   0  0  0  0  0  0  0  0  0  0  0  0
    1.9376  -22.6727   17.1587 C   0  0  0  0  0  0  0  0  0  0  0  0
    0.8804  -23.6516   17.0582 C   0  0  0  0  0  0  0  0  0  0  0  0
    1.0975  -24.9544   16.5954 C   0  0  0  0  0  0  0  0  0  0  0  0
    2.3508  -25.2928   16.1304 C   0  0  0  0  0  0  0  0  0  0  0  0
    3.3996  -24.3538   16.1631 C   0  0  0  0  0  0  0  0  0  0  0  0
    3.1884  -23.0711   16.7360 C   0  0  0  0  0  0  0  0  0  0  0  0
    4.3484  -21.8465   17.2258 S   0  0  0  0  0  0  0  0  0  0  0  0
    7.4814  -16.0856   20.6540 N   0  0  0  0  0  0  0  0  0  0  0  0
    8.3413  -14.9355   20.9653 C   0  0  0  0  0  0  0  0  0  0  0  0
    8.3784  -13.7671   19.9831 C   0  0  0  0  0  0  0  0  0  0  0  0
    8.5259  -13.7276   18.6074 C   0  0  0  0  0  0  0  0  0  0  0  0
    8.6367  -12.3990   18.2649 N   0  0  0  0  0  0  0  0  0  0  0  0
    8.5600  -11.6697   19.4140 C   0  0  0  0  0  0  0  0  0  0  0  0
    8.4103  -12.4544   20.4585 N   0  0  0  0  0  0  0  0  0  0  0  0
    6.8094  -19.0058   20.4062 H   0  0  0  0  0  0  0  0  0  0  0  0
    5.9673  -17.7137   19.7090 H   0  0  0  0  0  0  0  0  0  0  0  0
    4.0897  -19.2632   22.1731 H   0  0  0  0  0  0  0  0  0  0  0  0
    5.1678  -20.1679   20.6770 H   0  0  0  0  0  0  0  0  0  0  0  0
    3.9842  -21.3409   20.0316 H   0  0  0  0  0  0  0  0  0  0  0  0
   -0.1145  -23.4364   17.4138 H   0  0  0  0  0  0  0  0  0  0  0  0
    0.2874  -25.6770   16.5954 H   0  0  0  0  0  0  0  0  0  0  0  0
    2.5388  -26.2938   15.7510 H   0  0  0  0  0  0  0  0  0  0  0  0
    4.3960  -24.6464   15.8457 H   0  0  0  0  0  0  0  0  0  0  0  0
    6.9740  -16.1010   19.7811 H   0  0  0  0  0  0  0  0  0  0  0  0
    8.0297  -14.5711   21.9507 H   0  0  0  0  0  0  0  0  0  0  0  0
    9.3570  -15.3304   21.0793 H   0  0  0  0  0  0  0  0  0  0  0  0
    8.5958  -14.5089   17.8644 H   0  0  0  0  0  0  0  0  0  0  0  0
    8.7689  -12.0285   17.3336 H   0  0  0  0  0  0  0  0  0  0  0  0
    8.6195  -10.5895   19.4329 H   0  0  0  0  0  0  0  0  0  0  0  0
  1  2  2  0
  2  3  1  0
  3  4  1  0
  4  5  1  0
  5  6  1  0
  6  7  2  0
  7  8  1  0
  8  9  2  0
  9 10  1  0
 10 11  2  0
 11 12  1  0
 12 13  2  0
 13 14  1  0
  2 15  1  0
 15 16  1  0
 16 17  1  0
 17 18  2  0
 18 19  1  0
 19 20  1  0
 20 21  2  0
 14  6  1  0
 21 17  1  0
 13  8  1  0
  3 22  1  0
  3 23  1  0
  4 24  1  0
  4 25  1  0
  5 26  1  0
  9 27  1  0
 10 28  1  0
 11 29  1  0
 12 30  1  0
 15 31  1  0
 16 32  1  0
 16 33  1  0
 18 34  1  0
 19 35  1  0
 20 36  1  0
M  END
>  <Energy>  (1339) 
291.67520441093086

>  <compound_id>  (1339) 
59658

>  <target_id>  (1339) 
1

>  <reference_id>  (1339) 
80

>  <inspiration_ids>  (1339) 
[68, 80]

>  <energy_score>  (1339) 
277.0649563517723

>  <distance_score>  (1339) 
16.418823617824383

>  <path>  (1339) 
/opt/xchem-fragalysis-2/maxwin/BulkDock/SCRATCH/511021/C59658-P80/C59658-P80.minimised.mol

>  <scratch_subdir>  (1339) 
/opt/xchem-fragalysis-2/maxwin/BulkDock/SCRATCH/511021/C59658-P80

>  <fragmenstein_runtime>  (1339) 
11.092978477478027

>  <fragmenstein_outcome>  (1339) 
too moved

>  <fragmenstein_mode>  (1339) 
expansion

>  <fragmenstein_error>  (1339) 


$$$$
C32775-P68
     RDKit          3D

 39 41  0  0  0  0  0  0  0  0999 V2000
    0.8291  -23.9328   18.5092 C   0  0  0  0  0  0  0  0  0  0  0  0
    1.7865  -25.0953   18.3293 C   0  0  0  0  0  0  0  0  0  0  0  0
    3.0455  -24.6536   17.4284 C   0  0  0  0  0  0  0  0  0  0  0  0
    3.1413  -23.4751   16.4968 N   0  0  0  0  0  0  0  0  0  0  0  0
    2.9943  -22.0216   16.7507 C   0  0  0  0  0  0  0  0  0  0  0  0
    2.6825  -21.4318   17.7474 O   0  0  0  0  0  0  0  0  0  0  0  0
    3.4085  -21.1921   15.4647 C   0  0  0  0  0  0  0  0  0  0  0  0
    4.0854  -19.8123   15.6745 C   0  0  0  0  0  0  0  0  0  0  0  0
    5.3723  -19.5026   15.5063 N   0  0  0  0  0  0  0  0  0  0  0  0
    5.4690  -18.1327   15.6248 C   0  0  0  0  0  0  0  0  0  0  0  0
    4.2462  -17.5956   15.9260 C   0  0  0  0  0  0  0  0  0  0  0  0
    3.3624  -18.6457   15.8524 N   0  0  0  0  0  0  0  0  0  0  0  0
    1.1424  -26.4246   17.9039 N   0  0  0  0  0  0  0  0  0  0  0  0
    0.3814  -27.2016   18.7852 C   0  0  0  0  0  0  0  0  0  0  0  0
    0.6510  -28.4673   19.0726 N   0  0  0  0  0  0  0  0  0  0  0  0
   -0.2125  -28.9711   20.0649 C   0  0  0  0  0  0  0  0  0  0  0  0
   -0.1442  -30.2266   20.7119 C   0  0  0  0  0  0  0  0  0  0  0  0
   -0.9699  -30.4956   21.8135 C   0  0  0  0  0  0  0  0  0  0  0  0
   -1.8861  -29.5490   22.2526 C   0  0  0  0  0  0  0  0  0  0  0  0
   -2.0595  -28.3522   21.5567 C   0  0  0  0  0  0  0  0  0  0  0  0
   -1.2006  -28.0853   20.4766 C   0  0  0  0  0  0  0  0  0  0  0  0
   -1.1208  -26.7035   19.4716 S   0  0  0  0  0  0  0  0  0  0  0  0
   -0.1846  -24.2652   18.6845 H   0  0  0  0  0  0  0  0  0  0  0  0
    1.1319  -23.2982   19.3473 H   0  0  0  0  0  0  0  0  0  0  0  0
    0.7814  -23.2839   17.6328 H   0  0  0  0  0  0  0  0  0  0  0  0
    2.1869  -25.3711   19.3063 H   0  0  0  0  0  0  0  0  0  0  0  0
    3.8958  -24.5073   18.1013 H   0  0  0  0  0  0  0  0  0  0  0  0
    3.3207  -25.5111   16.8023 H   0  0  0  0  0  0  0  0  0  0  0  0
    3.4999  -23.6142   15.5610 H   0  0  0  0  0  0  0  0  0  0  0  0
    4.1047  -21.7890   14.8641 H   0  0  0  0  0  0  0  0  0  0  0  0
    2.4997  -21.0480   14.8696 H   0  0  0  0  0  0  0  0  0  0  0  0
    6.4194  -17.6289   15.5257 H   0  0  0  0  0  0  0  0  0  0  0  0
    3.8996  -16.6024   16.1533 H   0  0  0  0  0  0  0  0  0  0  0  0
    2.3461  -18.5818   15.8655 H   0  0  0  0  0  0  0  0  0  0  0  0
    1.8698  -27.0246   17.5222 H   0  0  0  0  0  0  0  0  0  0  0  0
    0.5947  -30.9530   20.3892 H   0  0  0  0  0  0  0  0  0  0  0  0
   -0.8710  -31.4461   22.3315 H   0  0  0  0  0  0  0  0  0  0  0  0
   -2.4763  -29.7365   23.1445 H   0  0  0  0  0  0  0  0  0  0  0  0
   -2.7874  -27.6150   21.8814 H   0  0  0  0  0  0  0  0  0  0  0  0
  1  2  1  0
  2  3  1  0
  3  4  1  0
  4  5  1  0
  5  6  2  0
  5  7  1  0
  7  8  1  0
  8  9  2  0
  9 10  1  0
 10 11  2  0
 11 12  1  0
  2 13  1  0
 13 14  1  0
 14 15  2  0
 15 16  1  0
 16 17  2  0
 17 18  1  0
 18 19  2  0
 19 20  1  0
 20 21  2  0
 21 22  1  0
 12  8  1  0
 22 14  1  0
 21 16  1  0
  1 23  1  0
  1 24  1  0
  1 25  1  0
  2 26  1  0
  3 27  1  0
  3 28  1  0
  4 29  1  0
  7 30  1  0
  7 31  1  0
 10 32  1  0
 11 33  1  0
 12 34  1  0
 13 35  1  0
 17 36  1  0
 18 37  1  0
 19 38  1  0
 20 39  1  0
M  END
>  <Energy>  (1340) 
45.78838787824558

>  <compound_id>  (1340) 
32775

>  <target_id>  (1340) 
1

>  <reference_id>  (1340) 
68

>  <inspiration_ids>  (1340) 
[68, 80]

>  <energy_score>  (1340) 
-34.566856446898555

>  <distance_score>  (1340) 
14.447316885172384

>  <path>  (1340) 
/opt/xchem-fragalysis-2/maxwin/BulkDock/SCRATCH/511021/C32775-P68/C32775-P68.minimised.mol

>  <scratch_subdir>  (1340) 
/opt/xchem-fragalysis-2/maxwin/BulkDock/SCRATCH/511021/C32775-P68

>  <fragmenstein_runtime>  (1340) 
27.938122034072876

>  <fragmenstein_outcome>  (1340) 
too moved

>  <fragmenstein_mode>  (1340) 
expansion

>  <fragmenstein_error>  (1340) 


$$$$
C32775-P80
     RDKit          3D

 39 41  0  0  0  0  0  0  0  0999 V2000
   -0.7547  -25.2468   17.6300 C   0  0  0  0  0  0  0  0  0  0  0  0
    0.5778  -25.9234   17.9046 C   0  0  0  0  0  0  0  0  0  0  0  0
    1.6919  -25.4006   16.8397 C   0  0  0  0  0  0  0  0  0  0  0  0
    2.0014  -23.9324   16.7044 N   0  0  0  0  0  0  0  0  0  0  0  0
    3.1940  -23.2341   16.1429 C   0  0  0  0  0  0  0  0  0  0  0  0
    4.2383  -23.6746   15.7314 O   0  0  0  0  0  0  0  0  0  0  0  0
    2.9892  -21.6573   16.1490 C   0  0  0  0  0  0  0  0  0  0  0  0
    4.0541  -20.7581   15.4457 C   0  0  0  0  0  0  0  0  0  0  0  0
    3.8853  -19.4986   15.0554 N   0  0  0  0  0  0  0  0  0  0  0  0
    5.0334  -19.0880   14.4241 C   0  0  0  0  0  0  0  0  0  0  0  0
    5.9902  -20.0630   14.5398 C   0  0  0  0  0  0  0  0  0  0  0  0
    5.3587  -21.1151   15.1711 N   0  0  0  0  0  0  0  0  0  0  0  0
    0.3702  -27.4174   17.8417 N   0  0  0  0  0  0  0  0  0  0  0  0
   -0.6124  -28.1408   18.5173 C   0  0  0  0  0  0  0  0  0  0  0  0
   -1.2999  -27.8110   19.5945 N   0  0  0  0  0  0  0  0  0  0  0  0
   -2.2388  -28.8022   19.9563 C   0  0  0  0  0  0  0  0  0  0  0  0
   -3.1476  -28.7656   21.0462 C   0  0  0  0  0  0  0  0  0  0  0  0
   -4.0508  -29.8194   21.2680 C   0  0  0  0  0  0  0  0  0  0  0  0
   -4.0620  -30.9196   20.4200 C   0  0  0  0  0  0  0  0  0  0  0  0
   -3.1695  -30.9907   19.3424 C   0  0  0  0  0  0  0  0  0  0  0  0
   -2.2667  -29.9224   19.1293 C   0  0  0  0  0  0  0  0  0  0  0  0
   -1.0627  -29.7204   17.9072 S   0  0  0  0  0  0  0  0  0  0  0  0
   -0.6494  -24.1699   17.4930 H   0  0  0  0  0  0  0  0  0  0  0  0
   -1.2367  -25.6786   16.7500 H   0  0  0  0  0  0  0  0  0  0  0  0
   -1.4369  -25.4119   18.4646 H   0  0  0  0  0  0  0  0  0  0  0  0
    0.9277  -25.6560   18.9085 H   0  0  0  0  0  0  0  0  0  0  0  0
    2.6434  -25.9001   17.0547 H   0  0  0  0  0  0  0  0  0  0  0  0
    1.3894  -25.7263   15.8372 H   0  0  0  0  0  0  0  0  0  0  0  0
    1.2683  -23.2538   16.8738 H   0  0  0  0  0  0  0  0  0  0  0  0
    2.0286  -21.4438   15.6697 H   0  0  0  0  0  0  0  0  0  0  0  0
    2.9301  -21.3338   17.1934 H   0  0  0  0  0  0  0  0  0  0  0  0
    5.0912  -18.1188   13.9480 H   0  0  0  0  0  0  0  0  0  0  0  0
    7.0086  -20.1406   14.1892 H   0  0  0  0  0  0  0  0  0  0  0  0
    5.7283  -22.0452   15.3299 H   0  0  0  0  0  0  0  0  0  0  0  0
    0.6323  -27.8192   16.9474 H   0  0  0  0  0  0  0  0  0  0  0  0
   -3.1406  -27.9025   21.7056 H   0  0  0  0  0  0  0  0  0  0  0  0
   -4.7445  -29.7728   22.1050 H   0  0  0  0  0  0  0  0  0  0  0  0
   -4.7649  -31.7311   20.5997 H   0  0  0  0  0  0  0  0  0  0  0  0
   -3.1717  -31.8530   18.6826 H   0  0  0  0  0  0  0  0  0  0  0  0
  1  2  1  0
  2  3  1  0
  3  4  1  0
  4  5  1  0
  5  6  2  0
  5  7  1  0
  7  8  1  0
  8  9  2  0
  9 10  1  0
 10 11  2  0
 11 12  1  0
  2 13  1  0
 13 14  1  0
 14 15  2  0
 15 16  1  0
 16 17  2  0
 17 18  1  0
 18 19  2  0
 19 20  1  0
 20 21  2  0
 21 22  1  0
 12  8  1  0
 22 14  1  0
 21 16  1  0
  1 23  1  0
  1 24  1  0
  1 25  1  0
  2 26  1  0
  3 27  1  0
  3 28  1  0
  4 29  1  0
  7 30  1  0
  7 31  1  0
 10 32  1  0
 11 33  1  0
 12 34  1  0
 13 35  1  0
 17 36  1  0
 18 37  1  0
 19 38  1  0
 20 39  1  0
M  END
>  <Energy>  (1341) 
28.421909090424037

>  <compound_id>  (1341) 
32775

>  <target_id>  (1341) 
1

>  <reference_id>  (1341) 
80

>  <inspiration_ids>  (1341) 
[68, 80]

>  <energy_score>  (1341) 
-51.93333523472302

>  <distance_score>  (1341) 
14.304576293855003

>  <path>  (1341) 
/opt/xchem-fragalysis-2/maxwin/BulkDock/SCRATCH/511021/C32775-P80/C32775-P80.minimised.mol

>  <scratch_subdir>  (1341) 
/opt/xchem-fragalysis-2/maxwin/BulkDock/SCRATCH/511021/C32775-P80

>  <fragmenstein_runtime>  (1341) 
16.66851544380188

>  <fragmenstein_outcome>  (1341) 
too moved

>  <fragmenstein_mode>  (1341) 
expansion

>  <fragmenstein_error>  (1341) 


$$$$
C32776-P68
     RDKit          3D

 42 44  0  0  0  0  0  0  0  0999 V2000
    1.9200  -28.2830   20.4388 C   0  0  0  0  0  0  0  0  0  0  0  0
    1.8367  -26.7549   20.4625 C   0  0  0  0  0  0  0  0  0  0  0  0
    0.6097  -26.2009   19.8601 N   0  0  0  0  0  0  0  0  0  0  0  0
    0.7618  -24.7031   19.3178 C   0  0  0  0  0  0  0  0  0  0  0  0
    1.8983  -24.4163   18.2318 C   0  0  0  0  0  0  0  0  0  0  0  0
    2.2222  -23.1754   17.4168 N   0  0  0  0  0  0  0  0  0  0  0  0
    2.0970  -21.7189   17.7507 C   0  0  0  0  0  0  0  0  0  0  0  0
    1.6339  -21.1785   18.7158 O   0  0  0  0  0  0  0  0  0  0  0  0
    2.7920  -20.9161   16.5276 C   0  0  0  0  0  0  0  0  0  0  0  0
    3.1772  -19.3988   16.4654 C   0  0  0  0  0  0  0  0  0  0  0  0
    2.8466  -18.3404   17.1882 N   0  0  0  0  0  0  0  0  0  0  0  0
    3.4922  -17.2316   16.6519 C   0  0  0  0  0  0  0  0  0  0  0  0
    4.2371  -17.5984   15.5650 C   0  0  0  0  0  0  0  0  0  0  0  0
    4.0060  -18.9445   15.4349 N   0  0  0  0  0  0  0  0  0  0  0  0
   -0.5866  -26.6502   20.4980 C   0  0  0  0  0  0  0  0  0  0  0  0
   -0.6251  -27.3443   21.6327 N   0  0  0  0  0  0  0  0  0  0  0  0
   -1.9244  -27.5325   22.1166 C   0  0  0  0  0  0  0  0  0  0  0  0
   -2.2965  -28.0790   23.3695 C   0  0  0  0  0  0  0  0  0  0  0  0
   -3.6312  -28.0175   23.7989 C   0  0  0  0  0  0  0  0  0  0  0  0
   -4.6037  -27.4492   22.9811 C   0  0  0  0  0  0  0  0  0  0  0  0
   -4.2777  -27.0048   21.6914 C   0  0  0  0  0  0  0  0  0  0  0  0
   -2.9283  -27.0550   21.2842 C   0  0  0  0  0  0  0  0  0  0  0  0
   -2.2029  -26.5738   19.7979 S   0  0  0  0  0  0  0  0  0  0  0  0
    2.9584  -28.5976   20.5893 H   0  0  0  0  0  0  0  0  0  0  0  0
    1.5663  -28.7165   19.5011 H   0  0  0  0  0  0  0  0  0  0  0  0
    1.3386  -28.7360   21.2467 H   0  0  0  0  0  0  0  0  0  0  0  0
    1.9209  -26.4124   21.4906 H   0  0  0  0  0  0  0  0  0  0  0  0
    2.7106  -26.3944   19.9181 H   0  0  0  0  0  0  0  0  0  0  0  0
   -0.1685  -24.4494   18.8092 H   0  0  0  0  0  0  0  0  0  0  0  0
    0.9115  -24.0488   20.1802 H   0  0  0  0  0  0  0  0  0  0  0  0
    1.6670  -25.0969   17.4314 H   0  0  0  0  0  0  0  0  0  0  0  0
    2.8661  -24.8147   18.5332 H   0  0  0  0  0  0  0  0  0  0  0  0
    2.7402  -23.2761   16.5550 H   0  0  0  0  0  0  0  0  0  0  0  0
    3.7472  -21.4369   16.3608 H   0  0  0  0  0  0  0  0  0  0  0  0
    2.1722  -21.1105   15.6455 H   0  0  0  0  0  0  0  0  0  0  0  0
    3.3692  -16.2519   17.0968 H   0  0  0  0  0  0  0  0  0  0  0  0
    4.8610  -17.0501   14.8775 H   0  0  0  0  0  0  0  0  0  0  0  0
    4.3533  -19.5326   14.6928 H   0  0  0  0  0  0  0  0  0  0  0  0
   -1.5232  -28.4748   24.0201 H   0  0  0  0  0  0  0  0  0  0  0  0
   -3.8984  -28.3986   24.7809 H   0  0  0  0  0  0  0  0  0  0  0  0
   -5.6342  -27.3924   23.3244 H   0  0  0  0  0  0  0  0  0  0  0  0
   -5.0408  -26.6010   21.0340 H   0  0  0  0  0  0  0  0  0  0  0  0
  1  2  1  0
  2  3  1  0
  3  4  1  0
  4  5  1  0
  5  6  1  0
  6  7  1  0
  7  8  2  0
  7  9  1  0
  9 10  1  0
 10 11  2  0
 11 12  1  0
 12 13  2  0
 13 14  1  0
  3 15  1  0
 15 16  2  0
 16 17  1  0
 17 18  2  0
 18 19  1  0
 19 20  2  0
 20 21  1  0
 21 22  2  0
 22 23  1  0
 14 10  1  0
 23 15  1  0
 22 17  1  0
  1 24  1  0
  1 25  1  0
  1 26  1  0
  2 27  1  0
  2 28  1  0
  4 29  1  0
  4 30  1  0
  5 31  1  0
  5 32  1  0
  6 33  1  0
  9 34  1  0
  9 35  1  0
 12 36  1  0
 13 37  1  0
 14 38  1  0
 18 39  1  0
 19 40  1  0
 20 41  1  0
 21 42  1  0
M  END
>  <Energy>  (1342) 
75.32018028387003

>  <compound_id>  (1342) 
32776

>  <target_id>  (1342) 
1

>  <reference_id>  (1342) 
68

>  <inspiration_ids>  (1342) 
[68, 80]

>  <energy_score>  (1342) 
-5.1145619676456135

>  <distance_score>  (1342) 
14.11549593395069

>  <path>  (1342) 
/opt/xchem-fragalysis-2/maxwin/BulkDock/SCRATCH/511021/C32776-P68/C32776-P68.minimised.mol

>  <scratch_subdir>  (1342) 
/opt/xchem-fragalysis-2/maxwin/BulkDock/SCRATCH/511021/C32776-P68

>  <fragmenstein_runtime>  (1342) 
28.731019973754883

>  <fragmenstein_outcome>  (1342) 
too moved

>  <fragmenstein_mode>  (1342) 
expansion

>  <fragmenstein_error>  (1342) 


$$$$
C32776-P80
     RDKit          3D

 42 44  0  0  0  0  0  0  0  0999 V2000
    4.1597  -21.1438   13.8000 C   0  0  0  0  0  0  0  0  0  0  0  0
    4.5351  -20.7894   15.2397 C   0  0  0  0  0  0  0  0  0  0  0  0
    3.3385  -20.6146   16.1324 N   0  0  0  0  0  0  0  0  0  0  0  0
    2.6905  -19.1339   15.7433 C   0  0  0  0  0  0  0  0  0  0  0  0
    2.2894  -17.6392   16.7035 C   0  0  0  0  0  0  0  0  0  0  0  0
    2.6325  -15.7742   16.9554 N   0  0  0  0  0  0  0  0  0  0  0  0
    3.7299  -15.0348   17.7928 C   0  0  0  0  0  0  0  0  0  0  0  0
    4.6362  -15.5083   18.3750 O   0  0  0  0  0  0  0  0  0  0  0  0
    3.6502  -13.2001   18.1314 C   0  0  0  0  0  0  0  0  0  0  0  0
    3.9633  -11.6421   17.0373 C   0  0  0  0  0  0  0  0  0  0  0  0
    3.3494  -11.1962   15.9215 N   0  0  0  0  0  0  0  0  0  0  0  0
    3.9918  -10.0637   15.4686 C   0  0  0  0  0  0  0  0  0  0  0  0
    5.0516   -9.7481   16.2676 C   0  0  0  0  0  0  0  0  0  0  0  0
    5.0409  -10.7228   17.2221 N   0  0  0  0  0  0  0  0  0  0  0  0
    2.6662  -21.9435   16.3704 C   0  0  0  0  0  0  0  0  0  0  0  0
    1.4145  -22.3239   16.6206 N   0  0  0  0  0  0  0  0  0  0  0  0
    1.2050  -23.7209   16.9467 C   0  0  0  0  0  0  0  0  0  0  0  0
    0.0114  -24.3800   17.3832 C   0  0  0  0  0  0  0  0  0  0  0  0
   -0.0543  -25.7487   17.6900 C   0  0  0  0  0  0  0  0  0  0  0  0
    1.0804  -26.5178   17.5338 C   0  0  0  0  0  0  0  0  0  0  0  0
    2.2692  -25.9226   17.0758 C   0  0  0  0  0  0  0  0  0  0  0  0
    2.3152  -24.5260   16.7975 C   0  0  0  0  0  0  0  0  0  0  0  0
    3.6300  -23.5261   16.2809 S   0  0  0  0  0  0  0  0  0  0  0  0
    3.5411  -20.3644   13.3440 H   0  0  0  0  0  0  0  0  0  0  0  0
    3.6050  -22.0823   13.7240 H   0  0  0  0  0  0  0  0  0  0  0  0
    5.0668  -21.2437   13.1952 H   0  0  0  0  0  0  0  0  0  0  0  0
    5.1103  -19.8602   15.1944 H   0  0  0  0  0  0  0  0  0  0  0  0
    5.2449  -21.5105   15.6575 H   0  0  0  0  0  0  0  0  0  0  0  0
    3.3781  -18.7335   14.9916 H   0  0  0  0  0  0  0  0  0  0  0  0
    1.7598  -19.4233   15.2521 H   0  0  0  0  0  0  0  0  0  0  0  0
    1.8100  -17.9847   17.6288 H   0  0  0  0  0  0  0  0  0  0  0  0
    1.4640  -17.4607   16.1495 H   0  0  0  0  0  0  0  0  0  0  0  0
    2.0362  -15.0824   16.5055 H   0  0  0  0  0  0  0  0  0  0  0  0
    4.1754  -13.0239   19.0823 H   0  0  0  0  0  0  0  0  0  0  0  0
    2.6062  -13.4467   18.1578 H   0  0  0  0  0  0  0  0  0  0  0  0
    3.6324   -9.5387   14.5947 H   0  0  0  0  0  0  0  0  0  0  0  0
    5.7606   -8.9357   16.2685 H   0  0  0  0  0  0  0  0  0  0  0  0
    5.5460  -10.7192   18.0926 H   0  0  0  0  0  0  0  0  0  0  0  0
   -0.8882  -23.8029   17.4611 H   0  0  0  0  0  0  0  0  0  0  0  0
   -0.9850  -26.1909   18.0320 H   0  0  0  0  0  0  0  0  0  0  0  0
    1.0604  -27.5802   17.7611 H   0  0  0  0  0  0  0  0  0  0  0  0
    3.1670  -26.5227   16.9572 H   0  0  0  0  0  0  0  0  0  0  0  0
  1  2  1  0
  2  3  1  0
  3  4  1  0
  4  5  1  0
  5  6  1  0
  6  7  1  0
  7  8  2  0
  7  9  1  0
  9 10  1  0
 10 11  2  0
 11 12  1  0
 12 13  2  0
 13 14  1  0
  3 15  1  0
 15 16  2  0
 16 17  1  0
 17 18  2  0
 18 19  1  0
 19 20  2  0
 20 21  1  0
 21 22  2  0
 22 23  1  0
 14 10  1  0
 23 15  1  0
 22 17  1  0
  1 24  1  0
  1 25  1  0
  1 26  1  0
  2 27  1  0
  2 28  1  0
  4 29  1  0
  4 30  1  0
  5 31  1  0
  5 32  1  0
  6 33  1  0
  9 34  1  0
  9 35  1  0
 12 36  1  0
 13 37  1  0
 14 38  1  0
 18 39  1  0
 19 40  1  0
 20 41  1  0
 21 42  1  0
M  END
>  <Energy>  (1343) 
315.44789063084903

>  <compound_id>  (1343) 
32776

>  <target_id>  (1343) 
1

>  <reference_id>  (1343) 
80

>  <inspiration_ids>  (1343) 
[68, 80]

>  <energy_score>  (1343) 
235.01314837932898

>  <distance_score>  (1343) 
15.329020593301536

>  <path>  (1343) 
/opt/xchem-fragalysis-2/maxwin/BulkDock/SCRATCH/511021/C32776-P80/C32776-P80.minimised.mol

>  <scratch_subdir>  (1343) 
/opt/xchem-fragalysis-2/maxwin/BulkDock/SCRATCH/511021/C32776-P80

>  <fragmenstein_runtime>  (1343) 
14.34547758102417

>  <fragmenstein_outcome>  (1343) 
too moved

>  <fragmenstein_mode>  (1343) 
expansion

>  <fragmenstein_error>  (1343) 


$$$$
C32777-P68
     RDKit          3D

 39 42  0  0  0  0  0  0  0  0999 V2000
    3.7361  -18.0683   15.8346 O   0  0  0  0  0  0  0  0  0  0  0  0
    3.0311  -17.8234   16.7987 C   0  0  0  0  0  0  0  0  0  0  0  0
    2.4085  -19.3639   17.5093 C   0  0  0  0  0  0  0  0  0  0  0  0
    1.8520  -20.7155   17.1710 O   0  0  0  0  0  0  0  0  0  0  0  0
    2.5113  -21.8448   17.9264 C   0  0  0  0  0  0  0  0  0  0  0  0
    1.8818  -23.3125   18.0532 C   0  0  0  0  0  0  0  0  0  0  0  0
    2.5751  -24.4576   18.1034 N   0  0  0  0  0  0  0  0  0  0  0  0
    1.9919  -25.3842   19.0304 C   0  0  0  0  0  0  0  0  0  0  0  0
    2.5927  -26.5297   19.6609 C   0  0  0  0  0  0  0  0  0  0  0  0
    1.8574  -27.4104   20.4832 C   0  0  0  0  0  0  0  0  0  0  0  0
    0.5105  -27.1920   20.6893 C   0  0  0  0  0  0  0  0  0  0  0  0
   -0.0830  -26.0536   20.1393 C   0  0  0  0  0  0  0  0  0  0  0  0
    0.6791  -25.1091   19.3711 C   0  0  0  0  0  0  0  0  0  0  0  0
    0.3201  -23.5428   18.6728 S   0  0  0  0  0  0  0  0  0  0  0  0
    2.5623  -16.3968   17.3427 N   0  0  0  0  0  0  0  0  0  0  0  0
    2.7533  -15.1020   16.8087 C   0  0  0  0  0  0  0  0  0  0  0  0
    2.9231  -13.9570   17.8503 C   0  0  0  0  0  0  0  0  0  0  0  0
    3.2997  -11.8868   17.2520 C   0  0  0  0  0  0  0  0  0  0  0  0
    2.6142  -11.3436   16.0526 N   0  0  0  0  0  0  0  0  0  0  0  0
    2.9820  -10.0740   15.6966 C   0  0  0  0  0  0  0  0  0  0  0  0
    4.0644   -9.7557   16.4227 C   0  0  0  0  0  0  0  0  0  0  0  0
    4.3625  -10.9665   17.0240 N   0  0  0  0  0  0  0  0  0  0  0  0
    3.3601  -15.3937   18.4949 C   0  0  0  0  0  0  0  0  0  0  0  0
    3.3930  -19.7237   17.7080 H   0  0  0  0  0  0  0  0  0  0  0  0
    1.7744  -19.0582   18.3255 H   0  0  0  0  0  0  0  0  0  0  0  0
    3.5186  -21.9595   17.5163 H   0  0  0  0  0  0  0  0  0  0  0  0
    2.5259  -21.5137   18.9638 H   0  0  0  0  0  0  0  0  0  0  0  0
    3.6385  -26.7270   19.4439 H   0  0  0  0  0  0  0  0  0  0  0  0
    2.3482  -28.2776   20.9163 H   0  0  0  0  0  0  0  0  0  0  0  0
   -0.0815  -27.8858   21.2795 H   0  0  0  0  0  0  0  0  0  0  0  0
   -1.1483  -25.9272   20.2895 H   0  0  0  0  0  0  0  0  0  0  0  0
    3.6241  -15.4636   16.2706 H   0  0  0  0  0  0  0  0  0  0  0  0
    1.8855  -14.7758   16.3184 H   0  0  0  0  0  0  0  0  0  0  0  0
    1.8423  -13.9167   18.0323 H   0  0  0  0  0  0  0  0  0  0  0  0
    2.4500   -9.5124   14.9443 H   0  0  0  0  0  0  0  0  0  0  0  0
    4.7179   -8.8992   16.4715 H   0  0  0  0  0  0  0  0  0  0  0  0
    5.0873  -11.0192   17.7077 H   0  0  0  0  0  0  0  0  0  0  0  0
    4.3701  -15.7641   18.4166 H   0  0  0  0  0  0  0  0  0  0  0  0
    2.6978  -15.5778   19.3435 H   0  0  0  0  0  0  0  0  0  0  0  0
  1  2  2  0
  2  3  1  0
  3  4  1  0
  4  5  1  0
  5  6  1  0
  6  7  2  0
  7  8  1  0
  8  9  2  0
  9 10  1  0
 10 11  2  0
 11 12  1  0
 12 13  2  0
 13 14  1  0
  2 15  1  0
 15 16  1  0
 16 17  1  0
 17 18  1  0
 18 19  2  0
 19 20  1  0
 20 21  2  0
 21 22  1  0
 17 23  1  0
 14  6  1  0
 23 15  1  0
 13  8  1  0
 22 18  1  0
  3 24  1  0
  3 25  1  0
  5 26  1  0
  5 27  1  0
  9 28  1  0
 10 29  1  0
 11 30  1  0
 12 31  1  0
 16 32  1  0
 16 33  1  0
 17 34  1  0
 20 35  1  0
 21 36  1  0
 22 37  1  0
 23 38  1  0
 23 39  1  0
M  END
>  <Energy>  (1344) 
437.70945479349859

>  <compound_id>  (1344) 
32777

>  <target_id>  (1344) 
1

>  <reference_id>  (1344) 
68

>  <inspiration_ids>  (1344) 
[68, 80]

>  <energy_score>  (1344) 
276.38160676250436

>  <distance_score>  (1344) 
14.400106975818408

>  <path>  (1344) 
/opt/xchem-fragalysis-2/maxwin/BulkDock/SCRATCH/511021/C32777-P68/C32777-P68.minimised.mol

>  <scratch_subdir>  (1344) 
/opt/xchem-fragalysis-2/maxwin/BulkDock/SCRATCH/511021/C32777-P68

>  <fragmenstein_runtime>  (1344) 
16.646634578704834

>  <fragmenstein_outcome>  (1344) 
too moved

>  <fragmenstein_mode>  (1344) 
expansion

>  <fragmenstein_error>  (1344) 


$$$$
C32777-P80
     RDKit          3D

 39 42  0  0  0  0  0  0  0  0999 V2000
    2.0236  -18.4553   17.9138 O   0  0  0  0  0  0  0  0  0  0  0  0
    1.9923  -17.8250   16.8961 C   0  0  0  0  0  0  0  0  0  0  0  0
    1.5019  -18.7850   15.7097 C   0  0  0  0  0  0  0  0  0  0  0  0
    1.3647  -20.2396   16.4233 O   0  0  0  0  0  0  0  0  0  0  0  0
    2.1126  -21.4629   16.0519 C   0  0  0  0  0  0  0  0  0  0  0  0
    1.5023  -23.0143   16.6143 C   0  0  0  0  0  0  0  0  0  0  0  0
    0.2869  -23.3905   17.0495 N   0  0  0  0  0  0  0  0  0  0  0  0
    0.1862  -24.7674   17.3926 C   0  0  0  0  0  0  0  0  0  0  0  0
   -0.9277  -25.4702   17.9425 C   0  0  0  0  0  0  0  0  0  0  0  0
   -0.8961  -26.8435   18.2227 C   0  0  0  0  0  0  0  0  0  0  0  0
    0.2516  -27.5576   17.9355 C   0  0  0  0  0  0  0  0  0  0  0  0
    1.3646  -26.9086   17.3701 C   0  0  0  0  0  0  0  0  0  0  0  0
    1.3187  -25.5132   17.1053 C   0  0  0  0  0  0  0  0  0  0  0  0
    2.5129  -24.4541   16.3955 S   0  0  0  0  0  0  0  0  0  0  0  0
    2.6427  -16.1091   16.8330 N   0  0  0  0  0  0  0  0  0  0  0  0
    3.4131  -15.2447   17.9250 C   0  0  0  0  0  0  0  0  0  0  0  0
    2.7765  -14.0720   18.2596 C   0  0  0  0  0  0  0  0  0  0  0  0
    3.8041  -12.3677   18.3541 C   0  0  0  0  0  0  0  0  0  0  0  0
    4.7120  -12.0634   19.3030 N   0  0  0  0  0  0  0  0  0  0  0  0
    5.1395  -10.7575   19.0583 C   0  0  0  0  0  0  0  0  0  0  0  0
    4.4441  -10.2106   18.0116 C   0  0  0  0  0  0  0  0  0  0  0  0
    3.6658  -11.2360   17.5344 N   0  0  0  0  0  0  0  0  0  0  0  0
    1.7598  -14.5198   17.1542 C   0  0  0  0  0  0  0  0  0  0  0  0
    2.4268  -19.0381   15.1659 H   0  0  0  0  0  0  0  0  0  0  0  0
    0.7064  -18.6477   15.0105 H   0  0  0  0  0  0  0  0  0  0  0  0
    2.1725  -21.5296   14.9621 H   0  0  0  0  0  0  0  0  0  0  0  0
    3.1154  -21.3792   16.4836 H   0  0  0  0  0  0  0  0  0  0  0  0
   -1.8324  -24.9297   18.1561 H   0  0  0  0  0  0  0  0  0  0  0  0
   -1.7631  -27.3333   18.6565 H   0  0  0  0  0  0  0  0  0  0  0  0
    0.2983  -28.6236   18.1435 H   0  0  0  0  0  0  0  0  0  0  0  0
    2.2642  -27.4719   17.1386 H   0  0  0  0  0  0  0  0  0  0  0  0
    3.7926  -15.8313   18.7063 H   0  0  0  0  0  0  0  0  0  0  0  0
    4.4089  -15.0522   17.5393 H   0  0  0  0  0  0  0  0  0  0  0  0
    2.5080  -14.3823   19.2698 H   0  0  0  0  0  0  0  0  0  0  0  0
    5.8820  -10.2900   19.6903 H   0  0  0  0  0  0  0  0  0  0  0  0
    4.4380   -9.2316   17.5578 H   0  0  0  0  0  0  0  0  0  0  0  0
    2.9621  -11.1824   16.8110 H   0  0  0  0  0  0  0  0  0  0  0  0
    0.9386  -14.3064   17.8111 H   0  0  0  0  0  0  0  0  0  0  0  0
    1.3764  -14.0547   16.3021 H   0  0  0  0  0  0  0  0  0  0  0  0
  1  2  2  0
  2  3  1  0
  3  4  1  0
  4  5  1  0
  5  6  1  0
  6  7  2  0
  7  8  1  0
  8  9  2  0
  9 10  1  0
 10 11  2  0
 11 12  1  0
 12 13  2  0
 13 14  1  0
  2 15  1  0
 15 16  1  0
 16 17  1  0
 17 18  1  0
 18 19  2  0
 19 20  1  0
 20 21  2  0
 21 22  1  0
 17 23  1  0
 14  6  1  0
 23 15  1  0
 13  8  1  0
 22 18  1  0
  3 24  1  0
  3 25  1  0
  5 26  1  0
  5 27  1  0
  9 28  1  0
 10 29  1  0
 11 30  1  0
 12 31  1  0
 16 32  1  0
 16 33  1  0
 17 34  1  0
 20 35  1  0
 21 36  1  0
 22 37  1  0
 23 38  1  0
 23 39  1  0
M  END
>  <Energy>  (1345) 
372.80292659103753

>  <compound_id>  (1345) 
32777

>  <target_id>  (1345) 
1

>  <reference_id>  (1345) 
80

>  <inspiration_ids>  (1345) 
[68, 80]

>  <energy_score>  (1345) 
211.47507856002574

>  <distance_score>  (1345) 
14.477750571851779

>  <path>  (1345) 
/opt/xchem-fragalysis-2/maxwin/BulkDock/SCRATCH/511021/C32777-P80/C32777-P80.minimised.mol

>  <scratch_subdir>  (1345) 
/opt/xchem-fragalysis-2/maxwin/BulkDock/SCRATCH/511021/C32777-P80

>  <fragmenstein_runtime>  (1345) 
19.055257558822632

>  <fragmenstein_outcome>  (1345) 
too moved

>  <fragmenstein_mode>  (1345) 
expansion

>  <fragmenstein_error>  (1345) 


$$$$
C32778-P68
     RDKit          3D

 40 43  0  0  0  0  0  0  0  0999 V2000
    4.0410  -16.1507   17.4188 C   0  0  0  0  0  0  0  0  0  0  0  0
    2.5968  -16.2659   17.0366 C   0  0  0  0  0  0  0  0  0  0  0  0
    2.1635  -14.5462   17.4029 N   0  0  0  0  0  0  0  0  0  0  0  0
    0.9158  -13.5520   16.7845 C   0  0  0  0  0  0  0  0  0  0  0  0
    0.0415  -13.8586   16.0508 O   0  0  0  0  0  0  0  0  0  0  0  0
    1.2043  -12.0907   17.2881 N   0  0  0  0  0  0  0  0  0  0  0  0
    2.2087  -11.3231   16.3187 C   0  0  0  0  0  0  0  0  0  0  0  0
    1.4967  -10.0288   16.3278 C   0  0  0  0  0  0  0  0  0  0  0  0
    2.3683   -8.7744   16.8400 C   0  0  0  0  0  0  0  0  0  0  0  0
    2.0851   -7.5241   16.5159 N   0  0  0  0  0  0  0  0  0  0  0  0
    3.1660   -6.7641   16.8995 C   0  0  0  0  0  0  0  0  0  0  0  0
    4.1298   -7.5517   17.4748 C   0  0  0  0  0  0  0  0  0  0  0  0
    3.6194   -8.8225   17.4239 N   0  0  0  0  0  0  0  0  0  0  0  0
    0.4215  -10.7529   17.0792 C   0  0  0  0  0  0  0  0  0  0  0  0
    2.4627  -18.0509   17.3130 C   0  0  0  0  0  0  0  0  0  0  0  0
    1.6278  -18.7502   18.1121 N   0  0  0  0  0  0  0  0  0  0  0  0
    1.7689  -20.1931   18.0198 C   0  0  0  0  0  0  0  0  0  0  0  0
    1.3268  -21.2052   18.9429 C   0  0  0  0  0  0  0  0  0  0  0  0
    1.3541  -22.5671   18.6213 C   0  0  0  0  0  0  0  0  0  0  0  0
    1.9163  -22.9558   17.4198 C   0  0  0  0  0  0  0  0  0  0  0  0
    2.4720  -22.0008   16.5474 C   0  0  0  0  0  0  0  0  0  0  0  0
    2.4265  -20.6207   16.8821 C   0  0  0  0  0  0  0  0  0  0  0  0
    3.1398  -19.2201   16.0994 S   0  0  0  0  0  0  0  0  0  0  0  0
    4.1961  -16.4735   18.4303 H   0  0  0  0  0  0  0  0  0  0  0  0
    4.6607  -16.7364   16.7346 H   0  0  0  0  0  0  0  0  0  0  0  0
    4.3514  -15.1207   17.4283 H   0  0  0  0  0  0  0  0  0  0  0  0
    2.6343  -16.2697   15.9676 H   0  0  0  0  0  0  0  0  0  0  0  0
    2.8090  -13.9864   17.9364 H   0  0  0  0  0  0  0  0  0  0  0  0
    2.1798  -11.7082   15.2902 H   0  0  0  0  0  0  0  0  0  0  0  0
    3.2098  -11.2640   16.7436 H   0  0  0  0  0  0  0  0  0  0  0  0
    1.1342   -9.7574   15.3247 H   0  0  0  0  0  0  0  0  0  0  0  0
    3.1812   -5.6941   16.7387 H   0  0  0  0  0  0  0  0  0  0  0  0
    5.0970   -7.3335   17.8977 H   0  0  0  0  0  0  0  0  0  0  0  0
    4.0786   -9.6687   17.7483 H   0  0  0  0  0  0  0  0  0  0  0  0
   -0.4887  -10.9530   16.4995 H   0  0  0  0  0  0  0  0  0  0  0  0
    0.1194  -10.2836   18.0204 H   0  0  0  0  0  0  0  0  0  0  0  0
    0.9226  -20.9019   19.9046 H   0  0  0  0  0  0  0  0  0  0  0  0
    0.9966  -23.3051   19.3332 H   0  0  0  0  0  0  0  0  0  0  0  0
    2.0064  -24.0105   17.1828 H   0  0  0  0  0  0  0  0  0  0  0  0
    2.9689  -22.3149   15.6347 H   0  0  0  0  0  0  0  0  0  0  0  0
  1  2  1  0
  2  3  1  0
  3  4  1  0
  4  5  2  0
  4  6  1  0
  6  7  1  0
  7  8  1  0
  8  9  1  0
  9 10  2  0
 10 11  1  0
 11 12  2  0
 12 13  1  0
  8 14  1  0
  2 15  1  0
 15 16  2  0
 16 17  1  0
 17 18  2  0
 18 19  1  0
 19 20  2  0
 20 21  1  0
 21 22  2  0
 22 23  1  0
 14  6  1  0
 23 15  1  0
 13  9  1  0
 22 17  1  0
  1 24  1  0
  1 25  1  0
  1 26  1  0
  2 27  1  0
  3 28  1  0
  7 29  1  0
  7 30  1  0
  8 31  1  0
 11 32  1  0
 12 33  1  0
 13 34  1  0
 14 35  1  0
 14 36  1  0
 18 37  1  0
 19 38  1  0
 20 39  1  0
 21 40  1  0
M  END
>  <Energy>  (1346) 
169.96922540566615

>  <compound_id>  (1346) 
32778

>  <target_id>  (1346) 
1

>  <reference_id>  (1346) 
68

>  <inspiration_ids>  (1346) 
[68, 80]

>  <energy_score>  (1346) 
133.13055107049433

>  <distance_score>  (1346) 
16.958548142154754

>  <path>  (1346) 
/opt/xchem-fragalysis-2/maxwin/BulkDock/SCRATCH/511021/C32778-P68/C32778-P68.minimised.mol

>  <scratch_subdir>  (1346) 
/opt/xchem-fragalysis-2/maxwin/BulkDock/SCRATCH/511021/C32778-P68

>  <fragmenstein_runtime>  (1346) 
15.899202108383179

>  <fragmenstein_outcome>  (1346) 
too moved

>  <fragmenstein_mode>  (1346) 
expansion

>  <fragmenstein_error>  (1346) 


$$$$
C32778-P80
     RDKit          3D

 40 43  0  0  0  0  0  0  0  0999 V2000
   -2.2654  -25.2896   16.5963 C   0  0  0  0  0  0  0  0  0  0  0  0
   -0.9888  -26.1552   16.6339 C   0  0  0  0  0  0  0  0  0  0  0  0
    0.1429  -25.2482   16.2158 N   0  0  0  0  0  0  0  0  0  0  0  0
    1.5462  -25.1712   16.6778 C   0  0  0  0  0  0  0  0  0  0  0  0
    2.1013  -25.7520   17.5475 O   0  0  0  0  0  0  0  0  0  0  0  0
    2.1056  -24.1839   15.6220 N   0  0  0  0  0  0  0  0  0  0  0  0
    2.0480  -22.6720   16.1507 C   0  0  0  0  0  0  0  0  0  0  0  0
    3.5419  -22.4752   16.1132 C   0  0  0  0  0  0  0  0  0  0  0  0
    4.2007  -21.1373   15.3921 C   0  0  0  0  0  0  0  0  0  0  0  0
    3.5600  -20.0296   15.0747 N   0  0  0  0  0  0  0  0  0  0  0  0
    4.4728  -19.1845   14.4760 C   0  0  0  0  0  0  0  0  0  0  0  0
    5.7249  -19.7466   14.4981 C   0  0  0  0  0  0  0  0  0  0  0  0
    5.5440  -20.9741   15.0929 N   0  0  0  0  0  0  0  0  0  0  0  0
    3.5483  -23.7546   15.3265 C   0  0  0  0  0  0  0  0  0  0  0  0
   -1.1361  -27.1637   17.8354 C   0  0  0  0  0  0  0  0  0  0  0  0
   -1.9144  -26.9595   18.8983 N   0  0  0  0  0  0  0  0  0  0  0  0
   -2.4519  -28.1547   19.4118 C   0  0  0  0  0  0  0  0  0  0  0  0
   -3.4155  -28.2816   20.4472 C   0  0  0  0  0  0  0  0  0  0  0  0
   -3.9301  -29.5389   20.8018 C   0  0  0  0  0  0  0  0  0  0  0  0
   -3.4815  -30.6807   20.1505 C   0  0  0  0  0  0  0  0  0  0  0  0
   -2.5106  -30.5889   19.1415 C   0  0  0  0  0  0  0  0  0  0  0  0
   -2.0117  -29.3150   18.7809 C   0  0  0  0  0  0  0  0  0  0  0  0
   -0.8503  -28.8729   17.5665 S   0  0  0  0  0  0  0  0  0  0  0  0
   -2.2841  -24.5942   17.4411 H   0  0  0  0  0  0  0  0  0  0  0  0
   -3.1707  -25.9053   16.6453 H   0  0  0  0  0  0  0  0  0  0  0  0
   -2.3179  -24.6959   15.6765 H   0  0  0  0  0  0  0  0  0  0  0  0
   -1.0659  -26.7980   15.7443 H   0  0  0  0  0  0  0  0  0  0  0  0
    0.0325  -24.6714   15.3934 H   0  0  0  0  0  0  0  0  0  0  0  0
    1.4616  -22.0804   15.4401 H   0  0  0  0  0  0  0  0  0  0  0  0
    1.5932  -22.6347   17.1385 H   0  0  0  0  0  0  0  0  0  0  0  0
    4.0256  -22.5925   17.0872 H   0  0  0  0  0  0  0  0  0  0  0  0
    4.1649  -18.2300   14.0714 H   0  0  0  0  0  0  0  0  0  0  0  0
    6.6848  -19.4145   14.1295 H   0  0  0  0  0  0  0  0  0  0  0  0
    6.2546  -21.6769   15.2374 H   0  0  0  0  0  0  0  0  0  0  0  0
    3.6782  -23.6438   14.2427 H   0  0  0  0  0  0  0  0  0  0  0  0
    4.2613  -24.5077   15.6805 H   0  0  0  0  0  0  0  0  0  0  0  0
   -3.7703  -27.3845   20.9463 H   0  0  0  0  0  0  0  0  0  0  0  0
   -4.6832  -29.6167   21.5833 H   0  0  0  0  0  0  0  0  0  0  0  0
   -3.8825  -31.6530   20.4308 H   0  0  0  0  0  0  0  0  0  0  0  0
   -2.1570  -31.4826   18.6362 H   0  0  0  0  0  0  0  0  0  0  0  0
  1  2  1  0
  2  3  1  0
  3  4  1  0
  4  5  2  0
  4  6  1  0
  6  7  1  0
  7  8  1  0
  8  9  1  0
  9 10  2  0
 10 11  1  0
 11 12  2  0
 12 13  1  0
  8 14  1  0
  2 15  1  0
 15 16  2  0
 16 17  1  0
 17 18  2  0
 18 19  1  0
 19 20  2  0
 20 21  1  0
 21 22  2  0
 22 23  1  0
 14  6  1  0
 23 15  1  0
 13  9  1  0
 22 17  1  0
  1 24  1  0
  1 25  1  0
  1 26  1  0
  2 27  1  0
  3 28  1  0
  7 29  1  0
  7 30  1  0
  8 31  1  0
 11 32  1  0
 12 33  1  0
 13 34  1  0
 14 35  1  0
 14 36  1  0
 18 37  1  0
 19 38  1  0
 20 39  1  0
 21 40  1  0
M  END
>  <Energy>  (1347) 
36.44294493805284

>  <compound_id>  (1347) 
32778

>  <target_id>  (1347) 
1

>  <reference_id>  (1347) 
80

>  <inspiration_ids>  (1347) 
[68, 80]

>  <energy_score>  (1347) 
-0.39572939712167

>  <distance_score>  (1347) 
14.628957468713548

>  <path>  (1347) 
/opt/xchem-fragalysis-2/maxwin/BulkDock/SCRATCH/511021/C32778-P80/C32778-P80.minimised.mol

>  <scratch_subdir>  (1347) 
/opt/xchem-fragalysis-2/maxwin/BulkDock/SCRATCH/511021/C32778-P80

>  <fragmenstein_runtime>  (1347) 
13.268751382827759

>  <fragmenstein_outcome>  (1347) 
too moved

>  <fragmenstein_mode>  (1347) 
expansion

>  <fragmenstein_error>  (1347) 


$$$$
C32779-P68
     RDKit          3D

 33 36  0  0  0  0  0  0  0  0999 V2000
    4.2208  -19.8449   16.6433 O   0  0  0  0  0  0  0  0  0  0  0  0
    2.8494  -19.3911   16.7910 S   0  0  0  0  0  0  0  0  0  0  0  0
    2.0943  -19.1691   18.0096 O   0  0  0  0  0  0  0  0  0  0  0  0
    2.0079  -21.0596   16.4457 C   0  0  0  0  0  0  0  0  0  0  0  0
    2.1521  -21.7816   15.2639 C   0  0  0  0  0  0  0  0  0  0  0  0
    1.7099  -23.1437   15.1525 C   0  0  0  0  0  0  0  0  0  0  0  0
    1.1194  -23.8134   16.2519 C   0  0  0  0  0  0  0  0  0  0  0  0
    0.4851  -25.4243   16.3858 S   0  0  0  0  0  0  0  0  0  0  0  0
    0.1156  -25.1357   18.0322 C   0  0  0  0  0  0  0  0  0  0  0  0
    0.3724  -23.9222   18.4696 N   0  0  0  0  0  0  0  0  0  0  0  0
    0.9854  -23.1598   17.4762 C   0  0  0  0  0  0  0  0  0  0  0  0
    1.4773  -21.8109   17.5702 C   0  0  0  0  0  0  0  0  0  0  0  0
    3.0376  -17.5218   16.3696 N   0  0  0  0  0  0  0  0  0  0  0  0
    4.3925  -16.7956   16.5205 C   0  0  0  0  0  0  0  0  0  0  0  0
    3.9186  -15.8769   17.7957 C   0  0  0  0  0  0  0  0  0  0  0  0
    4.3896  -14.0538   18.2914 C   0  0  0  0  0  0  0  0  0  0  0  0
    4.9403  -13.0745   17.5624 N   0  0  0  0  0  0  0  0  0  0  0  0
    5.4735  -12.0706   18.3220 C   0  0  0  0  0  0  0  0  0  0  0  0
    5.4247  -12.4744   19.6137 C   0  0  0  0  0  0  0  0  0  0  0  0
    4.6369  -13.6046   19.5894 N   0  0  0  0  0  0  0  0  0  0  0  0
    2.5624  -16.2716   17.3232 C   0  0  0  0  0  0  0  0  0  0  0  0
    2.6203  -21.3014   14.4060 H   0  0  0  0  0  0  0  0  0  0  0  0
    1.8407  -23.6621   14.2051 H   0  0  0  0  0  0  0  0  0  0  0  0
   -0.3164  -25.8966   18.6692 H   0  0  0  0  0  0  0  0  0  0  0  0
    1.4594  -21.3555   18.5583 H   0  0  0  0  0  0  0  0  0  0  0  0
    4.7011  -16.2605   15.6459 H   0  0  0  0  0  0  0  0  0  0  0  0
    5.2131  -17.5062   16.6194 H   0  0  0  0  0  0  0  0  0  0  0  0
    4.2332  -16.4304   18.6551 H   0  0  0  0  0  0  0  0  0  0  0  0
    5.9202  -11.1904   17.8808 H   0  0  0  0  0  0  0  0  0  0  0  0
    5.7970  -12.0407   20.5272 H   0  0  0  0  0  0  0  0  0  0  0  0
    4.3790  -14.1568   20.3914 H   0  0  0  0  0  0  0  0  0  0  0  0
    1.8265  -16.5125   18.0852 H   0  0  0  0  0  0  0  0  0  0  0  0
    2.2670  -15.4277   16.7185 H   0  0  0  0  0  0  0  0  0  0  0  0
  1  2  2  0
  2  3  2  0
  2  4  1  0
  4  5  2  0
  5  6  1  0
  6  7  2  0
  7  8  1  0
  8  9  1  0
  9 10  2  0
 10 11  1  0
 11 12  2  0
  2 13  1  0
 13 14  1  0
 14 15  1  0
 15 16  1  0
 16 17  2  0
 17 18  1  0
 18 19  2  0
 19 20  1  0
 15 21  1  0
 12  4  1  0
 21 13  1  0
 11  7  1  0
 20 16  1  0
  5 22  1  0
  6 23  1  0
  9 24  1  0
 12 25  1  0
 14 26  1  0
 14 27  1  0
 15 28  1  0
 18 29  1  0
 19 30  1  0
 20 31  1  0
 21 32  1  0
 21 33  1  0
M  END
>  <Energy>  (1348) 
148.25992832320509

>  <compound_id>  (1348) 
32779

>  <target_id>  (1348) 
1

>  <reference_id>  (1348) 
68

>  <inspiration_ids>  (1348) 
[68, 80]

>  <energy_score>  (1348) 
61.18957515069053

>  <distance_score>  (1348) 
16.441847773283836

>  <path>  (1348) 
/opt/xchem-fragalysis-2/maxwin/BulkDock/SCRATCH/511021/C32779-P68/C32779-P68.minimised.mol

>  <scratch_subdir>  (1348) 
/opt/xchem-fragalysis-2/maxwin/BulkDock/SCRATCH/511021/C32779-P68

>  <fragmenstein_runtime>  (1348) 
13.675289630889893

>  <fragmenstein_outcome>  (1348) 
too moved

>  <fragmenstein_mode>  (1348) 
expansion

>  <fragmenstein_error>  (1348) 


$$$$
C32779-P80
     RDKit          3D

 33 36  0  0  0  0  0  0  0  0999 V2000
    1.2465  -27.7877   16.5218 O   0  0  0  0  0  0  0  0  0  0  0  0
    0.7681  -26.8358   17.5057 S   0  0  0  0  0  0  0  0  0  0  0  0
    1.5398  -26.5481   18.6977 O   0  0  0  0  0  0  0  0  0  0  0  0
   -0.8281  -27.5515   18.1015 C   0  0  0  0  0  0  0  0  0  0  0  0
   -2.0764  -27.1214   17.6670 C   0  0  0  0  0  0  0  0  0  0  0  0
   -3.2538  -27.7997   18.0759 C   0  0  0  0  0  0  0  0  0  0  0  0
   -3.1601  -28.9283   18.9227 C   0  0  0  0  0  0  0  0  0  0  0  0
   -4.4057  -29.9588   19.5385 S   0  0  0  0  0  0  0  0  0  0  0  0
   -3.2267  -30.8830   20.3708 C   0  0  0  0  0  0  0  0  0  0  0  0
   -1.9769  -30.5017   20.2137 N   0  0  0  0  0  0  0  0  0  0  0  0
   -1.9229  -29.3788   19.3893 C   0  0  0  0  0  0  0  0  0  0  0  0
   -0.7548  -28.6748   18.9746 C   0  0  0  0  0  0  0  0  0  0  0  0
    0.5697  -25.2909   16.6313 N   0  0  0  0  0  0  0  0  0  0  0  0
    1.6201  -24.8472   15.5461 C   0  0  0  0  0  0  0  0  0  0  0  0
    2.3024  -23.8618   16.5348 C   0  0  0  0  0  0  0  0  0  0  0  0
    2.9331  -22.3959   15.9882 C   0  0  0  0  0  0  0  0  0  0  0  0
    4.2420  -22.2344   15.7934 N   0  0  0  0  0  0  0  0  0  0  0  0
    4.4332  -20.9472   15.3449 C   0  0  0  0  0  0  0  0  0  0  0  0
    3.2416  -20.2801   15.3061 C   0  0  0  0  0  0  0  0  0  0  0  0
    2.2961  -21.1960   15.7151 N   0  0  0  0  0  0  0  0  0  0  0  0
    0.9357  -23.9424   17.2766 C   0  0  0  0  0  0  0  0  0  0  0  0
   -2.1547  -26.2781   16.9855 H   0  0  0  0  0  0  0  0  0  0  0  0
   -4.2257  -27.4642   17.7228 H   0  0  0  0  0  0  0  0  0  0  0  0
   -3.5032  -31.7294   20.9875 H   0  0  0  0  0  0  0  0  0  0  0  0
    0.2134  -29.0348   19.3158 H   0  0  0  0  0  0  0  0  0  0  0  0
    2.2401  -25.6747   15.1936 H   0  0  0  0  0  0  0  0  0  0  0  0
    1.1039  -24.3811   14.6993 H   0  0  0  0  0  0  0  0  0  0  0  0
    3.1073  -24.3742   17.0803 H   0  0  0  0  0  0  0  0  0  0  0  0
    5.4145  -20.5907   15.0677 H   0  0  0  0  0  0  0  0  0  0  0  0
    2.9584  -19.2815   15.0133 H   0  0  0  0  0  0  0  0  0  0  0  0
    1.3036  -21.0025   15.7439 H   0  0  0  0  0  0  0  0  0  0  0  0
    0.2017  -23.2098   16.9449 H   0  0  0  0  0  0  0  0  0  0  0  0
    0.9366  -24.0084   18.3633 H   0  0  0  0  0  0  0  0  0  0  0  0
  1  2  2  0
  2  3  2  0
  2  4  1  0
  4  5  2  0
  5  6  1  0
  6  7  2  0
  7  8  1  0
  8  9  1  0
  9 10  2  0
 10 11  1  0
 11 12  2  0
  2 13  1  0
 13 14  1  0
 14 15  1  0
 15 16  1  0
 16 17  2  0
 17 18  1  0
 18 19  2  0
 19 20  1  0
 15 21  1  0
 12  4  1  0
 21 13  1  0
 11  7  1  0
 20 16  1  0
  5 22  1  0
  6 23  1  0
  9 24  1  0
 12 25  1  0
 14 26  1  0
 14 27  1  0
 15 28  1  0
 18 29  1  0
 19 30  1  0
 20 31  1  0
 21 32  1  0
 21 33  1  0
M  END
>  <Energy>  (1349) 
10.857704583670991

>  <compound_id>  (1349) 
32779

>  <target_id>  (1349) 
1

>  <reference_id>  (1349) 
80

>  <inspiration_ids>  (1349) 
[68, 80]

>  <energy_score>  (1349) 
-76.21264858884888

>  <distance_score>  (1349) 
15.652035300615298

>  <path>  (1349) 
/opt/xchem-fragalysis-2/maxwin/BulkDock/SCRATCH/511021/C32779-P80/C32779-P80.minimised.mol

>  <scratch_subdir>  (1349) 
/opt/xchem-fragalysis-2/maxwin/BulkDock/SCRATCH/511021/C32779-P80

>  <fragmenstein_runtime>  (1349) 
10.831385135650635

>  <fragmenstein_outcome>  (1349) 
too moved

>  <fragmenstein_mode>  (1349) 
expansion

>  <fragmenstein_error>  (1349) 


$$$$
C32780-P68
     RDKit          3D

 38 40  0  0  0  0  0  0  0  0999 V2000
    3.2419  -19.0235   15.4138 C   0  0  0  0  0  0  0  0  0  0  0  0
    3.3206  -18.6257   16.9201 C   0  0  0  0  0  0  0  0  0  0  0  0
    1.9135  -19.6859   17.6555 S   0  0  0  0  0  0  0  0  0  0  0  0
    1.9994  -21.5300   17.9514 C   0  0  0  0  0  0  0  0  0  0  0  0
    2.4652  -22.5000   17.1750 N   0  0  0  0  0  0  0  0  0  0  0  0
    2.1156  -23.7981   17.6887 C   0  0  0  0  0  0  0  0  0  0  0  0
    2.5242  -25.0729   17.1997 C   0  0  0  0  0  0  0  0  0  0  0  0
    2.0708  -26.2842   17.7775 C   0  0  0  0  0  0  0  0  0  0  0  0
    1.2249  -26.2666   18.8707 C   0  0  0  0  0  0  0  0  0  0  0  0
    0.8491  -25.0362   19.4056 C   0  0  0  0  0  0  0  0  0  0  0  0
    1.2824  -23.8151   18.8055 C   0  0  0  0  0  0  0  0  0  0  0  0
    1.0806  -22.1800   19.3159 S   0  0  0  0  0  0  0  0  0  0  0  0
    3.2092  -16.8176   16.9800 C   0  0  0  0  0  0  0  0  0  0  0  0
    2.7397  -16.4227   15.9833 O   0  0  0  0  0  0  0  0  0  0  0  0
    3.6256  -15.9870   18.2092 N   0  0  0  0  0  0  0  0  0  0  0  0
    3.6481  -14.3722   18.4558 C   0  0  0  0  0  0  0  0  0  0  0  0
    2.3418  -13.6141   18.2213 C   0  0  0  0  0  0  0  0  0  0  0  0
    4.4144  -13.3511   19.5300 C   0  0  0  0  0  0  0  0  0  0  0  0
    5.3612  -12.4277   19.3447 N   0  0  0  0  0  0  0  0  0  0  0  0
    5.1492  -11.3623   20.1710 C   0  0  0  0  0  0  0  0  0  0  0  0
    4.0922  -11.6516   20.9784 C   0  0  0  0  0  0  0  0  0  0  0  0
    3.7969  -12.9580   20.6795 N   0  0  0  0  0  0  0  0  0  0  0  0
    2.2555  -18.8802   14.9713 H   0  0  0  0  0  0  0  0  0  0  0  0
    3.9534  -18.4274   14.8300 H   0  0  0  0  0  0  0  0  0  0  0  0
    3.5177  -20.0762   15.2721 H   0  0  0  0  0  0  0  0  0  0  0  0
    4.3253  -18.9628   17.0398 H   0  0  0  0  0  0  0  0  0  0  0  0
    3.1898  -25.1001   16.3418 H   0  0  0  0  0  0  0  0  0  0  0  0
    2.4036  -27.2307   17.3595 H   0  0  0  0  0  0  0  0  0  0  0  0
    0.9037  -27.1910   19.3415 H   0  0  0  0  0  0  0  0  0  0  0  0
    0.3099  -25.0294   20.3415 H   0  0  0  0  0  0  0  0  0  0  0  0
    4.0718  -16.5865   18.8695 H   0  0  0  0  0  0  0  0  0  0  0  0
    4.2870  -14.2420   17.6297 H   0  0  0  0  0  0  0  0  0  0  0  0
    1.9615  -13.2685   19.1662 H   0  0  0  0  0  0  0  0  0  0  0  0
    1.6074  -14.1528   17.6298 H   0  0  0  0  0  0  0  0  0  0  0  0
    2.4789  -12.6027   17.8167 H   0  0  0  0  0  0  0  0  0  0  0  0
    5.7592  -10.4706   20.1323 H   0  0  0  0  0  0  0  0  0  0  0  0
    3.6054  -11.1122   21.7769 H   0  0  0  0  0  0  0  0  0  0  0  0
    3.1433  -13.5776   21.1345 H   0  0  0  0  0  0  0  0  0  0  0  0
  1  2  1  0
  2  3  1  0
  3  4  1  0
  4  5  2  0
  5  6  1  0
  6  7  2  0
  7  8  1  0
  8  9  2  0
  9 10  1  0
 10 11  2  0
 11 12  1  0
  2 13  1  0
 13 14  2  0
 13 15  1  0
 15 16  1  0
 16 17  1  0
 16 18  1  0
 18 19  2  0
 19 20  1  0
 20 21  2  0
 21 22  1  0
 12  4  1  0
 22 18  1  0
 11  6  1  0
  1 23  1  0
  1 24  1  0
  1 25  1  0
  2 26  1  0
  7 27  1  0
  8 28  1  0
  9 29  1  0
 10 30  1  0
 15 31  1  0
 16 32  1  0
 17 33  1  0
 17 34  1  0
 17 35  1  0
 20 36  1  0
 21 37  1  0
 22 38  1  0
M  END
>  <Energy>  (1350) 
166.49836457824858

>  <compound_id>  (1350) 
32780

>  <target_id>  (1350) 
1

>  <reference_id>  (1350) 
68

>  <inspiration_ids>  (1350) 
[68, 80]

>  <energy_score>  (1350) 
104.54249175892483

>  <distance_score>  (1350) 
15.697456326207886

>  <path>  (1350) 
/opt/xchem-fragalysis-2/maxwin/BulkDock/SCRATCH/511021/C32780-P68/C32780-P68.minimised.mol

>  <scratch_subdir>  (1350) 
/opt/xchem-fragalysis-2/maxwin/BulkDock/SCRATCH/511021/C32780-P68

>  <fragmenstein_runtime>  (1350) 
17.20788335800171

>  <fragmenstein_outcome>  (1350) 
too moved

>  <fragmenstein_mode>  (1350) 
expansion

>  <fragmenstein_error>  (1350) 


$$$$
C32780-P80
     RDKit          3D

 38 40  0  0  0  0  0  0  0  0999 V2000
    1.5219  -18.5469   17.6557 C   0  0  0  0  0  0  0  0  0  0  0  0
    2.2811  -17.5062   16.8506 C   0  0  0  0  0  0  0  0  0  0  0  0
    3.2513  -19.0336   15.5732 S   0  0  0  0  0  0  0  0  0  0  0  0
    2.6494  -20.9222   15.8551 C   0  0  0  0  0  0  0  0  0  0  0  0
    2.0916  -21.5336   16.8953 N   0  0  0  0  0  0  0  0  0  0  0  0
    1.8314  -22.9515   16.6627 C   0  0  0  0  0  0  0  0  0  0  0  0
    1.1060  -23.9218   17.4502 C   0  0  0  0  0  0  0  0  0  0  0  0
    0.9084  -25.2580   17.0705 C   0  0  0  0  0  0  0  0  0  0  0  0
    1.4683  -25.6959   15.8897 C   0  0  0  0  0  0  0  0  0  0  0  0
    2.2218  -24.8075   15.0986 C   0  0  0  0  0  0  0  0  0  0  0  0
    2.3751  -23.4394   15.4820 C   0  0  0  0  0  0  0  0  0  0  0  0
    3.1189  -22.1135   14.6306 S   0  0  0  0  0  0  0  0  0  0  0  0
    2.5446  -15.5017   17.2045 C   0  0  0  0  0  0  0  0  0  0  0  0
    1.7733  -14.8787   16.5457 O   0  0  0  0  0  0  0  0  0  0  0  0
    3.4938  -14.8982   18.2626 N   0  0  0  0  0  0  0  0  0  0  0  0
    3.6565  -13.2556   18.8992 C   0  0  0  0  0  0  0  0  0  0  0  0
    2.8408  -12.9128   20.1812 C   0  0  0  0  0  0  0  0  0  0  0  0
    3.7754  -11.7975   18.2456 C   0  0  0  0  0  0  0  0  0  0  0  0
    4.6529  -10.8673   18.6443 N   0  0  0  0  0  0  0  0  0  0  0  0
    4.3021   -9.6939   18.0190 C   0  0  0  0  0  0  0  0  0  0  0  0
    3.2410   -9.9083   17.1778 C   0  0  0  0  0  0  0  0  0  0  0  0
    2.8947  -11.2235   17.3584 N   0  0  0  0  0  0  0  0  0  0  0  0
    2.1247  -19.3086   18.1479 H   0  0  0  0  0  0  0  0  0  0  0  0
    0.9016  -19.1852   17.0239 H   0  0  0  0  0  0  0  0  0  0  0  0
    0.8781  -18.0436   18.3528 H   0  0  0  0  0  0  0  0  0  0  0  0
    1.5719  -17.3796   16.1361 H   0  0  0  0  0  0  0  0  0  0  0  0
    0.7573  -23.6531   18.4346 H   0  0  0  0  0  0  0  0  0  0  0  0
    0.3655  -25.9353   17.7230 H   0  0  0  0  0  0  0  0  0  0  0  0
    1.3514  -26.7303   15.5772 H   0  0  0  0  0  0  0  0  0  0  0  0
    2.6597  -25.1522   14.1652 H   0  0  0  0  0  0  0  0  0  0  0  0
    4.0894  -15.6277   18.6066 H   0  0  0  0  0  0  0  0  0  0  0  0
    4.6834  -13.3307   19.2943 H   0  0  0  0  0  0  0  0  0  0  0  0
    1.9860  -12.2790   19.9411 H   0  0  0  0  0  0  0  0  0  0  0  0
    2.5249  -13.7534   20.7905 H   0  0  0  0  0  0  0  0  0  0  0  0
    3.4608  -12.2941   20.8470 H   0  0  0  0  0  0  0  0  0  0  0  0
    4.8481   -8.7755   18.1882 H   0  0  0  0  0  0  0  0  0  0  0  0
    2.7004   -9.2666   16.4975 H   0  0  0  0  0  0  0  0  0  0  0  0
    2.1954  -11.7668   16.8632 H   0  0  0  0  0  0  0  0  0  0  0  0
  1  2  1  0
  2  3  1  0
  3  4  1  0
  4  5  2  0
  5  6  1  0
  6  7  2  0
  7  8  1  0
  8  9  2  0
  9 10  1  0
 10 11  2  0
 11 12  1  0
  2 13  1  0
 13 14  2  0
 13 15  1  0
 15 16  1  0
 16 17  1  0
 16 18  1  0
 18 19  2  0
 19 20  1  0
 20 21  2  0
 21 22  1  0
 12  4  1  0
 22 18  1  0
 11  6  1  0
  1 23  1  0
  1 24  1  0
  1 25  1  0
  2 26  1  0
  7 27  1  0
  8 28  1  0
  9 29  1  0
 10 30  1  0
 15 31  1  0
 16 32  1  0
 17 33  1  0
 17 34  1  0
 17 35  1  0
 20 36  1  0
 21 37  1  0
 22 38  1  0
M  END
>  <Energy>  (1351) 
272.03000850724021

>  <compound_id>  (1351) 
32780

>  <target_id>  (1351) 
1

>  <reference_id>  (1351) 
80

>  <inspiration_ids>  (1351) 
[68, 80]

>  <energy_score>  (1351) 
210.07413568791725

>  <distance_score>  (1351) 
16.180646279640843

>  <path>  (1351) 
/opt/xchem-fragalysis-2/maxwin/BulkDock/SCRATCH/511021/C32780-P80/C32780-P80.minimised.mol

>  <scratch_subdir>  (1351) 
/opt/xchem-fragalysis-2/maxwin/BulkDock/SCRATCH/511021/C32780-P80

>  <fragmenstein_runtime>  (1351) 
14.982830286026001

>  <fragmenstein_outcome>  (1351) 
too moved

>  <fragmenstein_mode>  (1351) 
expansion

>  <fragmenstein_error>  (1351) 


$$$$
C32781-P68
     RDKit          3D

 37 40  0  0  0  0  0  0  0  0999 V2000
    1.7871  -16.1177   18.2669 O   0  0  0  0  0  0  0  0  0  0  0  0
    2.8778  -16.0723   17.7584 C   0  0  0  0  0  0  0  0  0  0  0  0
    3.7442  -14.6440   17.9003 C   0  0  0  0  0  0  0  0  0  0  0  0
    4.0727  -12.9368   18.4488 C   0  0  0  0  0  0  0  0  0  0  0  0
    5.4003  -12.4149   19.0648 N   0  0  0  0  0  0  0  0  0  0  0  0
    5.8778  -10.9584   18.1490 C   0  0  0  0  0  0  0  0  0  0  0  0
    4.9720  -10.6844   17.1054 C   0  0  0  0  0  0  0  0  0  0  0  0
    3.8677  -11.6512   17.2639 N   0  0  0  0  0  0  0  0  0  0  0  0
    3.6235  -17.1066   16.9549 N   0  0  0  0  0  0  0  0  0  0  0  0
    3.1711  -18.5622   16.4213 C   0  0  0  0  0  0  0  0  0  0  0  0
    2.6351  -19.8711   17.1869 C   0  0  0  0  0  0  0  0  0  0  0  0
    2.8921  -21.2612   17.0056 C   0  0  0  0  0  0  0  0  0  0  0  0
    2.0300  -21.9994   17.8829 N   0  0  0  0  0  0  0  0  0  0  0  0
    1.7014  -23.4237   18.1331 C   0  0  0  0  0  0  0  0  0  0  0  0
    0.6651  -23.9029   18.8349 N   0  0  0  0  0  0  0  0  0  0  0  0
    0.6375  -25.3335   18.8739 C   0  0  0  0  0  0  0  0  0  0  0  0
   -0.3198  -26.2206   19.4693 C   0  0  0  0  0  0  0  0  0  0  0  0
   -0.2362  -27.6155   19.3633 C   0  0  0  0  0  0  0  0  0  0  0  0
    0.8115  -28.1707   18.6571 C   0  0  0  0  0  0  0  0  0  0  0  0
    1.7805  -27.3440   18.0625 C   0  0  0  0  0  0  0  0  0  0  0  0
    1.6833  -25.9317   18.1749 C   0  0  0  0  0  0  0  0  0  0  0  0
    2.7103  -24.6746   17.4975 S   0  0  0  0  0  0  0  0  0  0  0  0
    1.3801  -21.0501   18.5984 N   0  0  0  0  0  0  0  0  0  0  0  0
    1.6350  -19.8214   18.1179 N   0  0  0  0  0  0  0  0  0  0  0  0
    2.7286  -14.2416   18.0222 H   0  0  0  0  0  0  0  0  0  0  0  0
    4.2863  -14.9863   18.7299 H   0  0  0  0  0  0  0  0  0  0  0  0
    6.6964  -10.3636   18.5372 H   0  0  0  0  0  0  0  0  0  0  0  0
    4.8841   -9.9152   16.3545 H   0  0  0  0  0  0  0  0  0  0  0  0
    3.2242  -11.8378   16.5245 H   0  0  0  0  0  0  0  0  0  0  0  0
    4.4804  -16.7048   16.6121 H   0  0  0  0  0  0  0  0  0  0  0  0
    4.1225  -18.9120   15.9934 H   0  0  0  0  0  0  0  0  0  0  0  0
    2.5475  -18.3905   15.5448 H   0  0  0  0  0  0  0  0  0  0  0  0
    3.5374  -21.7957   16.3298 H   0  0  0  0  0  0  0  0  0  0  0  0
   -1.1642  -25.8364   20.0190 H   0  0  0  0  0  0  0  0  0  0  0  0
   -0.9883  -28.2456   19.8295 H   0  0  0  0  0  0  0  0  0  0  0  0
    0.8926  -29.2509   18.5607 H   0  0  0  0  0  0  0  0  0  0  0  0
    2.6013  -27.7858   17.5038 H   0  0  0  0  0  0  0  0  0  0  0  0
  1  2  2  0
  2  3  1  0
  3  4  1  0
  4  5  2  0
  5  6  1  0
  6  7  2  0
  7  8  1  0
  2  9  1  0
  9 10  1  0
 10 11  1  0
 11 12  2  0
 12 13  1  0
 13 14  1  0
 14 15  2  0
 15 16  1  0
 16 17  2  0
 17 18  1  0
 18 19  2  0
 19 20  1  0
 20 21  2  0
 21 22  1  0
 13 23  1  0
 23 24  2  0
  8  4  1  0
 24 11  1  0
 22 14  1  0
 21 16  1  0
  3 25  1  0
  3 26  1  0
  6 27  1  0
  7 28  1  0
  8 29  1  0
  9 30  1  0
 10 31  1  0
 10 32  1  0
 12 33  1  0
 17 34  1  0
 18 35  1  0
 19 36  1  0
 20 37  1  0
M  END
>  <Energy>  (1352) 
333.66657633382442

>  <compound_id>  (1352) 
32781

>  <target_id>  (1352) 
1

>  <reference_id>  (1352) 
68

>  <inspiration_ids>  (1352) 
[68, 80]

>  <energy_score>  (1352) 
189.15599613089

>  <distance_score>  (1352) 
14.127322313178695

>  <path>  (1352) 
/opt/xchem-fragalysis-2/maxwin/BulkDock/SCRATCH/511021/C32781-P68/C32781-P68.minimised.mol

>  <scratch_subdir>  (1352) 
/opt/xchem-fragalysis-2/maxwin/BulkDock/SCRATCH/511021/C32781-P68

>  <fragmenstein_runtime>  (1352) 
22.100930213928223

>  <fragmenstein_outcome>  (1352) 
too moved

>  <fragmenstein_mode>  (1352) 
expansion

>  <fragmenstein_error>  (1352) 


$$$$
C32781-P80
     RDKit          3D

 37 40  0  0  0  0  0  0  0  0999 V2000
    3.6141  -11.5388   15.6865 O   0  0  0  0  0  0  0  0  0  0  0  0
    3.6739  -11.4485   16.9055 C   0  0  0  0  0  0  0  0  0  0  0  0
    3.6864   -9.6794   17.3903 C   0  0  0  0  0  0  0  0  0  0  0  0
    4.7275   -8.5295   17.5326 C   0  0  0  0  0  0  0  0  0  0  0  0
    4.9331   -7.7553   18.5804 N   0  0  0  0  0  0  0  0  0  0  0  0
    5.7255   -6.7290   18.1753 C   0  0  0  0  0  0  0  0  0  0  0  0
    5.9547   -6.8133   16.8313 C   0  0  0  0  0  0  0  0  0  0  0  0
    5.2893   -7.9179   16.4187 N   0  0  0  0  0  0  0  0  0  0  0  0
    3.6153  -12.7681   18.0715 N   0  0  0  0  0  0  0  0  0  0  0  0
    3.3164  -14.6894   17.8230 C   0  0  0  0  0  0  0  0  0  0  0  0
    2.6691  -16.1152   16.6002 C   0  0  0  0  0  0  0  0  0  0  0  0
    3.3828  -17.3676   15.6494 C   0  0  0  0  0  0  0  0  0  0  0  0
    2.6669  -18.8014   15.9832 N   0  0  0  0  0  0  0  0  0  0  0  0
    2.7058  -20.2867   15.8239 C   0  0  0  0  0  0  0  0  0  0  0  0
    2.0924  -21.1121   16.6875 N   0  0  0  0  0  0  0  0  0  0  0  0
    2.1154  -22.4699   16.3326 C   0  0  0  0  0  0  0  0  0  0  0  0
    1.4486  -23.5814   16.9513 C   0  0  0  0  0  0  0  0  0  0  0  0
    1.5102  -24.8794   16.4388 C   0  0  0  0  0  0  0  0  0  0  0  0
    2.2412  -25.0935   15.2849 C   0  0  0  0  0  0  0  0  0  0  0  0
    2.9181  -24.0273   14.6475 C   0  0  0  0  0  0  0  0  0  0  0  0
    2.8460  -22.7109   15.1776 C   0  0  0  0  0  0  0  0  0  0  0  0
    3.5141  -21.1635   14.6039 S   0  0  0  0  0  0  0  0  0  0  0  0
    1.7906  -18.4941   16.9281 N   0  0  0  0  0  0  0  0  0  0  0  0
    1.9473  -17.2919   17.3998 N   0  0  0  0  0  0  0  0  0  0  0  0
    2.7424   -9.3763   17.8665 H   0  0  0  0  0  0  0  0  0  0  0  0
    3.6672   -9.3527   16.3392 H   0  0  0  0  0  0  0  0  0  0  0  0
    6.0638   -5.9868   18.8815 H   0  0  0  0  0  0  0  0  0  0  0  0
    6.5117   -6.2148   16.1404 H   0  0  0  0  0  0  0  0  0  0  0  0
    5.1922   -8.2544   15.4688 H   0  0  0  0  0  0  0  0  0  0  0  0
    3.7738  -12.4042   18.9954 H   0  0  0  0  0  0  0  0  0  0  0  0
    4.2899  -15.0812   18.0966 H   0  0  0  0  0  0  0  0  0  0  0  0
    2.5761  -14.8020   18.6045 H   0  0  0  0  0  0  0  0  0  0  0  0
    4.3115  -17.4727   15.1079 H   0  0  0  0  0  0  0  0  0  0  0  0
    0.9070  -23.4259   17.8713 H   0  0  0  0  0  0  0  0  0  0  0  0
    1.0044  -25.6947   16.9456 H   0  0  0  0  0  0  0  0  0  0  0  0
    2.3060  -26.0927   14.8604 H   0  0  0  0  0  0  0  0  0  0  0  0
    3.4776  -24.2071   13.7334 H   0  0  0  0  0  0  0  0  0  0  0  0
  1  2  2  0
  2  3  1  0
  3  4  1  0
  4  5  2  0
  5  6  1  0
  6  7  2  0
  7  8  1  0
  2  9  1  0
  9 10  1  0
 10 11  1  0
 11 12  2  0
 12 13  1  0
 13 14  1  0
 14 15  2  0
 15 16  1  0
 16 17  2  0
 17 18  1  0
 18 19  2  0
 19 20  1  0
 20 21  2  0
 21 22  1  0
 13 23  1  0
 23 24  2  0
  8  4  1  0
 24 11  1  0
 22 14  1  0
 21 16  1  0
  3 25  1  0
  3 26  1  0
  6 27  1  0
  7 28  1  0
  8 29  1  0
  9 30  1  0
 10 31  1  0
 10 32  1  0
 12 33  1  0
 17 34  1  0
 18 35  1  0
 19 36  1  0
 20 37  1  0
M  END
>  <Energy>  (1353) 
463.84886435140862

>  <compound_id>  (1353) 
32781

>  <target_id>  (1353) 
1

>  <reference_id>  (1353) 
80

>  <inspiration_ids>  (1353) 
[68, 80]

>  <energy_score>  (1353) 
319.3382841484603

>  <distance_score>  (1353) 
16.020618251989568

>  <path>  (1353) 
/opt/xchem-fragalysis-2/maxwin/BulkDock/SCRATCH/511021/C32781-P80/C32781-P80.minimised.mol

>  <scratch_subdir>  (1353) 
/opt/xchem-fragalysis-2/maxwin/BulkDock/SCRATCH/511021/C32781-P80

>  <fragmenstein_runtime>  (1353) 
15.184543371200562

>  <fragmenstein_outcome>  (1353) 
too moved

>  <fragmenstein_mode>  (1353) 
expansion

>  <fragmenstein_error>  (1353) 


$$$$
C32782-P68
     RDKit          3D

 35 37  0  0  0  0  0  0  0  0999 V2000
    0.9228  -12.6979   25.3903 C   0  0  0  0  0  0  0  0  0  0  0  0
    0.3349  -13.1526   23.6233 C   0  0  0  0  0  0  0  0  0  0  0  0
    0.1696  -11.8800   23.0210 C   0  0  0  0  0  0  0  0  0  0  0  0
   -0.6531  -14.6371   22.4549 N   0  0  0  0  0  0  0  0  0  0  0  0
   -2.0873  -15.8526   20.9535 S   0  0  0  0  0  0  0  0  0  0  0  0
   -3.5434  -15.8611   21.1787 O   0  0  0  0  0  0  0  0  0  0  0  0
   -1.7593  -15.6801   19.5748 O   0  0  0  0  0  0  0  0  0  0  0  0
   -2.7837  -18.0557   21.1813 C   0  0  0  0  0  0  0  0  0  0  0  0
   -2.1654  -19.2264   21.8290 C   0  0  0  0  0  0  0  0  0  0  0  0
   -2.7145  -20.5370   21.9284 C   0  0  0  0  0  0  0  0  0  0  0  0
   -3.9452  -20.7861   21.3358 C   0  0  0  0  0  0  0  0  0  0  0  0
   -4.8167  -22.2825   21.2720 S   0  0  0  0  0  0  0  0  0  0  0  0
   -6.0256  -21.5018   20.3543 C   0  0  0  0  0  0  0  0  0  0  0  0
   -5.8404  -20.2184   20.1127 N   0  0  0  0  0  0  0  0  0  0  0  0
   -4.6338  -19.7670   20.6662 C   0  0  0  0  0  0  0  0  0  0  0  0
   -4.0619  -18.4091   20.6015 C   0  0  0  0  0  0  0  0  0  0  0  0
    2.1549  -12.4267   23.4789 C   0  0  0  0  0  0  0  0  0  0  0  0
    2.4578  -11.2087   23.0231 N   0  0  0  0  0  0  0  0  0  0  0  0
    3.4297  -10.5949   23.7481 C   0  0  0  0  0  0  0  0  0  0  0  0
    4.2106  -11.5935   24.1214 C   0  0  0  0  0  0  0  0  0  0  0  0
    3.3036  -12.7041   24.1148 N   0  0  0  0  0  0  0  0  0  0  0  0
    1.7226  -13.3688   25.6903 H   0  0  0  0  0  0  0  0  0  0  0  0
    0.2566  -12.8937   26.2490 H   0  0  0  0  0  0  0  0  0  0  0  0
    1.2912  -11.6637   25.4759 H   0  0  0  0  0  0  0  0  0  0  0  0
    0.6311  -11.2730   22.2506 H   0  0  0  0  0  0  0  0  0  0  0  0
    0.0984  -11.2858   23.8826 H   0  0  0  0  0  0  0  0  0  0  0  0
   -0.5335  -12.3969   22.4767 H   0  0  0  0  0  0  0  0  0  0  0  0
   -1.3253  -14.9806   23.1859 H   0  0  0  0  0  0  0  0  0  0  0  0
   -1.1578  -19.2093   22.2441 H   0  0  0  0  0  0  0  0  0  0  0  0
   -2.1509  -21.3292   22.4144 H   0  0  0  0  0  0  0  0  0  0  0  0
   -6.8994  -22.0305   19.9959 H   0  0  0  0  0  0  0  0  0  0  0  0
   -4.6336  -17.6560   20.0629 H   0  0  0  0  0  0  0  0  0  0  0  0
    3.5732   -9.5247   23.8336 H   0  0  0  0  0  0  0  0  0  0  0  0
    5.1662  -11.6198   24.6322 H   0  0  0  0  0  0  0  0  0  0  0  0
    3.4218  -13.4172   24.8194 H   0  0  0  0  0  0  0  0  0  0  0  0
  1  2  1  0
  2  3  1  0
  2  4  1  0
  4  5  1  0
  5  6  2  0
  5  7  2  0
  5  8  1  0
  8  9  2  0
  9 10  1  0
 10 11  2  0
 11 12  1  0
 12 13  1  0
 13 14  2  0
 14 15  1  0
 15 16  2  0
  2 17  1  0
 17 18  2  0
 18 19  1  0
 19 20  2  0
 20 21  1  0
 16  8  1  0
 21 17  1  0
 15 11  1  0
  1 22  1  0
  1 23  1  0
  1 24  1  0
  3 25  1  0
  3 26  1  0
  3 27  1  0
  4 28  1  0
  9 29  1  0
 10 30  1  0
 13 31  1  0
 16 32  1  0
 19 33  1  0
 20 34  1  0
 21 35  1  0
M  END
>  <Energy>  (1354) 
726.28377127453837

>  <compound_id>  (1354) 
32782

>  <target_id>  (1354) 
1

>  <reference_id>  (1354) 
68

>  <inspiration_ids>  (1354) 
[68, 80]

>  <energy_score>  (1354) 
672.0710906542133

>  <distance_score>  (1354) 
17.349587283861318

>  <path>  (1354) 
/opt/xchem-fragalysis-2/maxwin/BulkDock/SCRATCH/511021/C32782-P68/C32782-P68.minimised.mol

>  <scratch_subdir>  (1354) 
/opt/xchem-fragalysis-2/maxwin/BulkDock/SCRATCH/511021/C32782-P68

>  <fragmenstein_runtime>  (1354) 
19.878572940826416

>  <fragmenstein_outcome>  (1354) 
too moved

>  <fragmenstein_mode>  (1354) 
expansion

>  <fragmenstein_error>  (1354) 


$$$$
C32782-P80
     RDKit          3D

 35 37  0  0  0  0  0  0  0  0999 V2000
   -3.7958  -24.2183   22.0179 C   0  0  0  0  0  0  0  0  0  0  0  0
   -3.4816  -24.7539   20.6078 C   0  0  0  0  0  0  0  0  0  0  0  0
   -4.5126  -24.2109   19.5961 C   0  0  0  0  0  0  0  0  0  0  0  0
   -3.5574  -26.3642   20.6866 N   0  0  0  0  0  0  0  0  0  0  0  0
   -5.1632  -27.0928   20.5721 S   0  0  0  0  0  0  0  0  0  0  0  0
   -6.0653  -26.3475   21.4273 O   0  0  0  0  0  0  0  0  0  0  0  0
   -5.4121  -27.2122   19.1517 O   0  0  0  0  0  0  0  0  0  0  0  0
   -5.2169  -28.7961   21.2027 C   0  0  0  0  0  0  0  0  0  0  0  0
   -6.0023  -29.0493   22.3361 C   0  0  0  0  0  0  0  0  0  0  0  0
   -6.5078  -30.3315   22.6031 C   0  0  0  0  0  0  0  0  0  0  0  0
   -6.1959  -31.3797   21.7270 C   0  0  0  0  0  0  0  0  0  0  0  0
   -6.7529  -33.0134   21.7363 S   0  0  0  0  0  0  0  0  0  0  0  0
   -5.7683  -33.3384   20.3779 C   0  0  0  0  0  0  0  0  0  0  0  0
   -5.1218  -32.3178   19.8593 N   0  0  0  0  0  0  0  0  0  0  0  0
   -5.3658  -31.1786   20.6209 C   0  0  0  0  0  0  0  0  0  0  0  0
   -4.8907  -29.8652   20.3467 C   0  0  0  0  0  0  0  0  0  0  0  0
   -2.0460  -24.1380   20.1432 C   0  0  0  0  0  0  0  0  0  0  0  0
   -1.7124  -23.7344   18.9167 N   0  0  0  0  0  0  0  0  0  0  0  0
   -0.4780  -23.1214   18.9986 C   0  0  0  0  0  0  0  0  0  0  0  0
   -0.0335  -23.1236   20.2953 C   0  0  0  0  0  0  0  0  0  0  0  0
   -1.0354  -23.7297   21.0117 N   0  0  0  0  0  0  0  0  0  0  0  0
   -3.1238  -24.6574   22.7641 H   0  0  0  0  0  0  0  0  0  0  0  0
   -4.8167  -24.4486   22.3321 H   0  0  0  0  0  0  0  0  0  0  0  0
   -3.6850  -23.1286   22.0648 H   0  0  0  0  0  0  0  0  0  0  0  0
   -4.3689  -24.6628   18.6081 H   0  0  0  0  0  0  0  0  0  0  0  0
   -5.5459  -24.3930   19.9025 H   0  0  0  0  0  0  0  0  0  0  0  0
   -4.4136  -23.1247   19.4780 H   0  0  0  0  0  0  0  0  0  0  0  0
   -3.0602  -26.6801   19.8454 H   0  0  0  0  0  0  0  0  0  0  0  0
   -6.3324  -28.2301   22.9739 H   0  0  0  0  0  0  0  0  0  0  0  0
   -7.1957  -30.4856   23.4249 H   0  0  0  0  0  0  0  0  0  0  0  0
   -5.7033  -34.3317   19.9559 H   0  0  0  0  0  0  0  0  0  0  0  0
   -4.3499  -29.6939   19.4209 H   0  0  0  0  0  0  0  0  0  0  0  0
    0.0124  -22.7202   18.1210 H   0  0  0  0  0  0  0  0  0  0  0  0
    0.8685  -22.7487   20.7614 H   0  0  0  0  0  0  0  0  0  0  0  0
   -1.0341  -23.8768   22.0105 H   0  0  0  0  0  0  0  0  0  0  0  0
  1  2  1  0
  2  3  1  0
  2  4  1  0
  4  5  1  0
  5  6  2  0
  5  7  2  0
  5  8  1  0
  8  9  2  0
  9 10  1  0
 10 11  2  0
 11 12  1  0
 12 13  1  0
 13 14  2  0
 14 15  1  0
 15 16  2  0
  2 17  1  0
 17 18  2  0
 18 19  1  0
 19 20  2  0
 20 21  1  0
 16  8  1  0
 21 17  1  0
 15 11  1  0
  1 22  1  0
  1 23  1  0
  1 24  1  0
  3 25  1  0
  3 26  1  0
  3 27  1  0
  4 28  1  0
  9 29  1  0
 10 30  1  0
 13 31  1  0
 16 32  1  0
 19 33  1  0
 20 34  1  0
 21 35  1  0
M  END
>  <Energy>  (1355) 
-20.295028178834386

>  <compound_id>  (1355) 
32782

>  <target_id>  (1355) 
1

>  <reference_id>  (1355) 
80

>  <inspiration_ids>  (1355) 
[68, 80]

>  <energy_score>  (1355) 
-74.50770879914654

>  <distance_score>  (1355) 
15.668838862884106

>  <path>  (1355) 
/opt/xchem-fragalysis-2/maxwin/BulkDock/SCRATCH/511021/C32782-P80/C32782-P80.minimised.mol

>  <scratch_subdir>  (1355) 
/opt/xchem-fragalysis-2/maxwin/BulkDock/SCRATCH/511021/C32782-P80

>  <fragmenstein_runtime>  (1355) 
15.088980197906494

>  <fragmenstein_outcome>  (1355) 
too moved

>  <fragmenstein_mode>  (1355) 
expansion

>  <fragmenstein_error>  (1355) 


$$$$
C32783-P68
     RDKit          3D

 36 39  0  0  0  0  0  0  0  0999 V2000
   -9.1695  -28.0986   19.9070 C   0  0  0  0  0  0  0  0  0  0  0  0
   -8.3385  -28.6658   18.9516 C   0  0  0  0  0  0  0  0  0  0  0  0
   -7.7846  -27.8821   17.9382 C   0  0  0  0  0  0  0  0  0  0  0  0
   -8.1072  -26.5101   17.8942 C   0  0  0  0  0  0  0  0  0  0  0  0
   -7.5988  -25.3050   16.7650 S   0  0  0  0  0  0  0  0  0  0  0  0
   -8.5860  -24.0966   17.5336 C   0  0  0  0  0  0  0  0  0  0  0  0
   -8.7653  -22.7012   16.8455 C   0  0  0  0  0  0  0  0  0  0  0  0
   -9.9469  -21.8701   17.3294 C   0  0  0  0  0  0  0  0  0  0  0  0
   -9.6304  -20.4676   16.7726 C   0  0  0  0  0  0  0  0  0  0  0  0
   -8.1732  -20.2517   16.9441 N   0  0  0  0  0  0  0  0  0  0  0  0
   -7.6124  -19.3133   15.9082 C   0  0  0  0  0  0  0  0  0  0  0  0
   -6.4556  -18.2827   16.2247 C   0  0  0  0  0  0  0  0  0  0  0  0
   -5.6081  -18.2090   17.2397 N   0  0  0  0  0  0  0  0  0  0  0  0
   -4.7837  -17.1260   16.9845 C   0  0  0  0  0  0  0  0  0  0  0  0
   -5.0827  -16.5337   15.7892 C   0  0  0  0  0  0  0  0  0  0  0  0
   -6.1315  -17.2719   15.3122 N   0  0  0  0  0  0  0  0  0  0  0  0
   -7.6423  -21.6500   17.0378 C   0  0  0  0  0  0  0  0  0  0  0  0
   -9.2022  -24.5471   18.6188 N   0  0  0  0  0  0  0  0  0  0  0  0
   -8.9489  -25.9155   18.8320 C   0  0  0  0  0  0  0  0  0  0  0  0
   -9.4723  -26.7304   19.8650 C   0  0  0  0  0  0  0  0  0  0  0  0
   -9.5748  -28.7192   20.6991 H   0  0  0  0  0  0  0  0  0  0  0  0
   -8.0946  -29.7217   19.0060 H   0  0  0  0  0  0  0  0  0  0  0  0
   -7.1231  -28.3192   17.1962 H   0  0  0  0  0  0  0  0  0  0  0  0
   -8.8943  -22.8780   15.7680 H   0  0  0  0  0  0  0  0  0  0  0  0
  -10.9024  -22.2515   16.9558 H   0  0  0  0  0  0  0  0  0  0  0  0
   -9.9938  -21.8418   18.4252 H   0  0  0  0  0  0  0  0  0  0  0  0
   -9.9044  -20.4500   15.7095 H   0  0  0  0  0  0  0  0  0  0  0  0
  -10.2049  -19.6945   17.2921 H   0  0  0  0  0  0  0  0  0  0  0  0
   -7.3328  -19.8828   15.0137 H   0  0  0  0  0  0  0  0  0  0  0  0
   -8.4367  -18.6553   15.5949 H   0  0  0  0  0  0  0  0  0  0  0  0
   -4.0159  -16.8366   17.6780 H   0  0  0  0  0  0  0  0  0  0  0  0
   -4.6617  -15.6969   15.2522 H   0  0  0  0  0  0  0  0  0  0  0  0
   -6.5997  -17.1253   14.4296 H   0  0  0  0  0  0  0  0  0  0  0  0
   -6.7847  -21.8372   16.3866 H   0  0  0  0  0  0  0  0  0  0  0  0
   -7.3766  -21.7604   18.0862 H   0  0  0  0  0  0  0  0  0  0  0  0
  -10.1172  -26.2864   20.6167 H   0  0  0  0  0  0  0  0  0  0  0  0
  1  2  2  0
  2  3  1  0
  3  4  2  0
  4  5  1  0
  5  6  1  0
  6  7  1  0
  7  8  1  0
  8  9  1  0
  9 10  1  0
 10 11  1  0
 11 12  1  0
 12 13  2  0
 13 14  1  0
 14 15  2  0
 15 16  1  0
 10 17  1  0
  6 18  2  0
 18 19  1  0
 19 20  2  0
 20  1  1  0
 19  4  1  0
 17  7  1  0
 16 12  1  0
  1 21  1  0
  2 22  1  0
  3 23  1  0
  7 24  1  0
  8 25  1  0
  8 26  1  0
  9 27  1  0
  9 28  1  0
 11 29  1  0
 11 30  1  0
 14 31  1  0
 15 32  1  0
 16 33  1  0
 17 34  1  0
 17 35  1  0
 20 36  1  0
M  END
>  <Energy>  (1356) 
68.724387722622296

>  <compound_id>  (1356) 
32783

>  <target_id>  (1356) 
1

>  <reference_id>  (1356) 
68

>  <inspiration_ids>  (1356) 
[68, 80]

>  <energy_score>  (1356) 
-31.17233008886069

>  <distance_score>  (1356) 
16.762957448339733

>  <path>  (1356) 
/opt/xchem-fragalysis-2/maxwin/BulkDock/SCRATCH/511021/C32783-P68/C32783-P68.minimised.mol

>  <scratch_subdir>  (1356) 
/opt/xchem-fragalysis-2/maxwin/BulkDock/SCRATCH/511021/C32783-P68

>  <fragmenstein_runtime>  (1356) 
15.959983348846436

>  <fragmenstein_outcome>  (1356) 
too moved

>  <fragmenstein_mode>  (1356) 
expansion

>  <fragmenstein_error>  (1356) 


$$$$
C32783-P80
     RDKit          3D

 36 39  0  0  0  0  0  0  0  0999 V2000
   -1.1222  -27.7656   20.0655 C   0  0  0  0  0  0  0  0  0  0  0  0
   -1.3522  -27.6931   18.6990 C   0  0  0  0  0  0  0  0  0  0  0  0
   -0.8190  -26.6348   17.9395 C   0  0  0  0  0  0  0  0  0  0  0  0
   -0.0830  -25.6093   18.5863 C   0  0  0  0  0  0  0  0  0  0  0  0
    0.6824  -24.1762   17.9292 S   0  0  0  0  0  0  0  0  0  0  0  0
    0.9870  -23.4513   19.6565 C   0  0  0  0  0  0  0  0  0  0  0  0
    1.6860  -21.6325   19.9427 C   0  0  0  0  0  0  0  0  0  0  0  0
    2.1878  -20.7560   18.8123 C   0  0  0  0  0  0  0  0  0  0  0  0
    2.2416  -19.6016   19.8494 C   0  0  0  0  0  0  0  0  0  0  0  0
    1.0128  -18.6930   21.1041 N   0  0  0  0  0  0  0  0  0  0  0  0
    0.8131  -16.7794   20.5483 C   0  0  0  0  0  0  0  0  0  0  0  0
    2.0741  -15.1680   20.2270 C   0  0  0  0  0  0  0  0  0  0  0  0
    2.7699  -14.2251   20.9834 N   0  0  0  0  0  0  0  0  0  0  0  0
    3.8613  -13.1606   20.2500 C   0  0  0  0  0  0  0  0  0  0  0  0
    3.7875  -13.5244   18.8933 C   0  0  0  0  0  0  0  0  0  0  0  0
    2.7187  -14.6498   18.7753 N   0  0  0  0  0  0  0  0  0  0  0  0
    1.6607  -20.1349   21.3940 C   0  0  0  0  0  0  0  0  0  0  0  0
    0.6975  -24.4563   20.4906 N   0  0  0  0  0  0  0  0  0  0  0  0
    0.1257  -25.6435   19.9540 C   0  0  0  0  0  0  0  0  0  0  0  0
   -0.3702  -26.7617   20.6913 C   0  0  0  0  0  0  0  0  0  0  0  0
   -1.5263  -28.5866   20.6517 H   0  0  0  0  0  0  0  0  0  0  0  0
   -1.9349  -28.4677   18.2056 H   0  0  0  0  0  0  0  0  0  0  0  0
   -0.9867  -26.5918   16.8671 H   0  0  0  0  0  0  0  0  0  0  0  0
    0.7121  -21.7773   20.1788 H   0  0  0  0  0  0  0  0  0  0  0  0
    3.1751  -21.0517   18.4313 H   0  0  0  0  0  0  0  0  0  0  0  0
    1.7315  -20.4195   17.8869 H   0  0  0  0  0  0  0  0  0  0  0  0
    3.0011  -19.2041   20.5434 H   0  0  0  0  0  0  0  0  0  0  0  0
    2.9937  -20.3221   20.1270 H   0  0  0  0  0  0  0  0  0  0  0  0
   -0.0353  -16.4443   21.1386 H   0  0  0  0  0  0  0  0  0  0  0  0
    0.4367  -17.0623   19.6089 H   0  0  0  0  0  0  0  0  0  0  0  0
    4.2867  -12.3647   20.8338 H   0  0  0  0  0  0  0  0  0  0  0  0
    3.7605  -12.8026   18.1032 H   0  0  0  0  0  0  0  0  0  0  0  0
    2.4135  -14.9585   17.8759 H   0  0  0  0  0  0  0  0  0  0  0  0
    2.5445  -19.8296   21.9696 H   0  0  0  0  0  0  0  0  0  0  0  0
    1.2584  -20.5281   22.3287 H   0  0  0  0  0  0  0  0  0  0  0  0
   -0.2137  -26.7926   21.7650 H   0  0  0  0  0  0  0  0  0  0  0  0
  1  2  2  0
  2  3  1  0
  3  4  2  0
  4  5  1  0
  5  6  1  0
  6  7  1  0
  7  8  1  0
  8  9  1  0
  9 10  1  0
 10 11  1  0
 11 12  1  0
 12 13  2  0
 13 14  1  0
 14 15  2  0
 15 16  1  0
 10 17  1  0
  6 18  2  0
 18 19  1  0
 19 20  2  0
 20  1  1  0
 19  4  1  0
 17  7  1  0
 16 12  1  0
  1 21  1  0
  2 22  1  0
  3 23  1  0
  7 24  1  0
  8 25  1  0
  8 26  1  0
  9 27  1  0
  9 28  1  0
 11 29  1  0
 11 30  1  0
 14 31  1  0
 15 32  1  0
 16 33  1  0
 17 34  1  0
 17 35  1  0
 20 36  1  0
M  END
>  <Energy>  (1357) 
872.30104407930844

>  <compound_id>  (1357) 
32783

>  <target_id>  (1357) 
1

>  <reference_id>  (1357) 
80

>  <inspiration_ids>  (1357) 
[68, 80]

>  <energy_score>  (1357) 
772.4043262678248

>  <distance_score>  (1357) 
14.688811346840742

>  <path>  (1357) 
/opt/xchem-fragalysis-2/maxwin/BulkDock/SCRATCH/511021/C32783-P80/C32783-P80.minimised.mol

>  <scratch_subdir>  (1357) 
/opt/xchem-fragalysis-2/maxwin/BulkDock/SCRATCH/511021/C32783-P80

>  <fragmenstein_runtime>  (1357) 
6.496188163757324

>  <fragmenstein_outcome>  (1357) 
too moved

>  <fragmenstein_mode>  (1357) 
expansion

>  <fragmenstein_error>  (1357) 


$$$$
C32784-P68
     RDKit          3D

 35 38  0  0  0  0  0  0  0  0999 V2000
   -7.3147  -20.9772   22.7590 C   0  0  0  0  0  0  0  0  0  0  0  0
   -7.3544  -21.0414   24.1474 C   0  0  0  0  0  0  0  0  0  0  0  0
   -6.2597  -20.6110   24.9119 C   0  0  0  0  0  0  0  0  0  0  0  0
   -5.0872  -20.1931   24.2407 C   0  0  0  0  0  0  0  0  0  0  0  0
   -3.4962  -19.9000   24.8568 S   0  0  0  0  0  0  0  0  0  0  0  0
   -2.7287  -20.1636   23.2613 C   0  0  0  0  0  0  0  0  0  0  0  0
   -1.1843  -20.3854   22.7984 C   0  0  0  0  0  0  0  0  0  0  0  0
   -1.0271  -19.9057   21.6399 C   0  0  0  0  0  0  0  0  0  0  0  0
   -0.3087  -20.4696   20.5297 N   0  0  0  0  0  0  0  0  0  0  0  0
    0.8487  -21.0062   20.5543 C   0  0  0  0  0  0  0  0  0  0  0  0
    1.3122  -20.6512   21.7118 C   0  0  0  0  0  0  0  0  0  0  0  0
    2.6417  -20.2282   21.6688 N   0  0  0  0  0  0  0  0  0  0  0  0
    4.3897  -19.6684   21.6888 C   0  0  0  0  0  0  0  0  0  0  0  0
    6.1439  -19.1272   21.0297 C   0  0  0  0  0  0  0  0  0  0  0  0
    7.0885  -20.0688   20.8037 N   0  0  0  0  0  0  0  0  0  0  0  0
    8.2594  -19.6231   20.2706 C   0  0  0  0  0  0  0  0  0  0  0  0
    8.0718  -18.3377   19.9477 C   0  0  0  0  0  0  0  0  0  0  0  0
    6.7527  -18.0248   20.3433 N   0  0  0  0  0  0  0  0  0  0  0  0
    0.1312  -20.8430   22.8271 C   0  0  0  0  0  0  0  0  0  0  0  0
   -3.7117  -19.9753   22.3456 N   0  0  0  0  0  0  0  0  0  0  0  0
   -5.0194  -20.1227   22.8510 C   0  0  0  0  0  0  0  0  0  0  0  0
   -6.1724  -20.4850   22.1043 C   0  0  0  0  0  0  0  0  0  0  0  0
   -8.1680  -21.3091   22.1723 H   0  0  0  0  0  0  0  0  0  0  0  0
   -8.2429  -21.4209   24.6472 H   0  0  0  0  0  0  0  0  0  0  0  0
   -6.2775  -20.6890   25.9949 H   0  0  0  0  0  0  0  0  0  0  0  0
   -1.8282  -19.1965   21.4622 H   0  0  0  0  0  0  0  0  0  0  0  0
    1.3763  -21.2530   19.6512 H   0  0  0  0  0  0  0  0  0  0  0  0
    2.4387  -19.6966   22.5452 H   0  0  0  0  0  0  0  0  0  0  0  0
    4.2407  -19.4921   22.8300 H   0  0  0  0  0  0  0  0  0  0  0  0
    4.9462  -20.7363   21.4942 H   0  0  0  0  0  0  0  0  0  0  0  0
    9.1301  -20.2535   20.1657 H   0  0  0  0  0  0  0  0  0  0  0  0
    8.8197  -17.6553   19.5884 H   0  0  0  0  0  0  0  0  0  0  0  0
    6.2871  -17.1518   20.1765 H   0  0  0  0  0  0  0  0  0  0  0  0
    0.1187  -21.7835   23.3684 H   0  0  0  0  0  0  0  0  0  0  0  0
   -6.1182  -20.4828   21.0199 H   0  0  0  0  0  0  0  0  0  0  0  0
  1  2  2  0
  2  3  1  0
  3  4  2  0
  4  5  1  0
  5  6  1  0
  6  7  1  0
  7  8  2  0
  8  9  1  0
  9 10  2  0
 10 11  1  0
 11 12  1  0
 12 13  1  0
 13 14  1  0
 14 15  2  0
 15 16  1  0
 16 17  2  0
 17 18  1  0
 11 19  2  0
  6 20  2  0
 20 21  1  0
 21 22  2  0
 22  1  1  0
 21  4  1  0
 19  7  1  0
 18 14  1  0
  1 23  1  0
  2 24  1  0
  3 25  1  0
  8 26  1  0
 10 27  1  0
 12 28  1  0
 13 29  1  0
 13 30  1  0
 16 31  1  0
 17 32  1  0
 18 33  1  0
 19 34  1  0
 22 35  1  0
M  END
>  <Energy>  (1358) 
500.99924045582577

>  <compound_id>  (1358) 
32784

>  <target_id>  (1358) 
1

>  <reference_id>  (1358) 
68

>  <inspiration_ids>  (1358) 
[68, 80]

>  <energy_score>  (1358) 
356.02700002090614

>  <distance_score>  (1358) 
16.82888694111684

>  <path>  (1358) 
/opt/xchem-fragalysis-2/maxwin/BulkDock/SCRATCH/511021/C32784-P68/C32784-P68.minimised.mol

>  <scratch_subdir>  (1358) 
/opt/xchem-fragalysis-2/maxwin/BulkDock/SCRATCH/511021/C32784-P68

>  <fragmenstein_runtime>  (1358) 
11.825059175491333

>  <fragmenstein_outcome>  (1358) 
too moved

>  <fragmenstein_mode>  (1358) 
expansion

>  <fragmenstein_error>  (1358) 


$$$$
C32784-P80
     RDKit          3D

 35 38  0  0  0  0  0  0  0  0999 V2000
   -0.8152  -26.7970   18.1803 C   0  0  0  0  0  0  0  0  0  0  0  0
    0.3165  -27.5396   17.8993 C   0  0  0  0  0  0  0  0  0  0  0  0
    1.4612  -26.9127   17.3727 C   0  0  0  0  0  0  0  0  0  0  0  0
    1.4656  -25.5094   17.1511 C   0  0  0  0  0  0  0  0  0  0  0  0
    2.6953  -24.4660   16.4809 S   0  0  0  0  0  0  0  0  0  0  0  0
    1.7473  -22.9934   16.7773 C   0  0  0  0  0  0  0  0  0  0  0  0
    2.3276  -21.5046   16.3933 C   0  0  0  0  0  0  0  0  0  0  0  0
    3.1124  -21.3673   15.2592 C   0  0  0  0  0  0  0  0  0  0  0  0
    3.6582  -20.1945   14.7982 N   0  0  0  0  0  0  0  0  0  0  0  0
    3.2825  -19.0122   15.4004 C   0  0  0  0  0  0  0  0  0  0  0  0
    2.4466  -18.8634   16.5153 C   0  0  0  0  0  0  0  0  0  0  0  0
    2.0299  -17.4658   17.1678 N   0  0  0  0  0  0  0  0  0  0  0  0
    2.7075  -15.7040   17.5607 C   0  0  0  0  0  0  0  0  0  0  0  0
    2.0477  -14.2746   18.2853 C   0  0  0  0  0  0  0  0  0  0  0  0
    1.0131  -13.5172   17.9169 N   0  0  0  0  0  0  0  0  0  0  0  0
    1.2075  -12.2531   18.4377 C   0  0  0  0  0  0  0  0  0  0  0  0
    2.3744  -12.1926   19.1484 C   0  0  0  0  0  0  0  0  0  0  0  0
    2.8839  -13.4545   19.0482 N   0  0  0  0  0  0  0  0  0  0  0  0
    2.1158  -20.1823   17.0448 C   0  0  0  0  0  0  0  0  0  0  0  0
    0.5147  -23.3527   17.1707 N   0  0  0  0  0  0  0  0  0  0  0  0
    0.3552  -24.7358   17.4466 C   0  0  0  0  0  0  0  0  0  0  0  0
   -0.7968  -25.4160   17.9399 C   0  0  0  0  0  0  0  0  0  0  0  0
   -1.7078  -27.2712   18.5778 H   0  0  0  0  0  0  0  0  0  0  0  0
    0.3237  -28.6122   18.0770 H   0  0  0  0  0  0  0  0  0  0  0  0
    2.3448  -27.4996   17.1381 H   0  0  0  0  0  0  0  0  0  0  0  0
    3.3574  -22.2222   14.6355 H   0  0  0  0  0  0  0  0  0  0  0  0
    3.7642  -18.1539   14.9436 H   0  0  0  0  0  0  0  0  0  0  0  0
    1.7422  -17.2053   16.2323 H   0  0  0  0  0  0  0  0  0  0  0  0
    3.6592  -15.6386   18.1142 H   0  0  0  0  0  0  0  0  0  0  0  0
    2.8521  -15.4900   16.5417 H   0  0  0  0  0  0  0  0  0  0  0  0
    0.4923  -11.4632   18.2554 H   0  0  0  0  0  0  0  0  0  0  0  0
    2.8767  -11.4015   19.6820 H   0  0  0  0  0  0  0  0  0  0  0  0
    3.7707  -13.7733   19.4149 H   0  0  0  0  0  0  0  0  0  0  0  0
    1.8023  -20.1838   18.0707 H   0  0  0  0  0  0  0  0  0  0  0  0
   -1.6894  -24.8494   18.1370 H   0  0  0  0  0  0  0  0  0  0  0  0
  1  2  2  0
  2  3  1  0
  3  4  2  0
  4  5  1  0
  5  6  1  0
  6  7  1  0
  7  8  2  0
  8  9  1  0
  9 10  2  0
 10 11  1  0
 11 12  1  0
 12 13  1  0
 13 14  1  0
 14 15  2  0
 15 16  1  0
 16 17  2  0
 17 18  1  0
 11 19  2  0
  6 20  2  0
 20 21  1  0
 21 22  2  0
 22  1  1  0
 21  4  1  0
 19  7  1  0
 18 14  1  0
  1 23  1  0
  2 24  1  0
  3 25  1  0
  8 26  1  0
 10 27  1  0
 12 28  1  0
 13 29  1  0
 13 30  1  0
 16 31  1  0
 17 32  1  0
 18 33  1  0
 19 34  1  0
 22 35  1  0
M  END
>  <Energy>  (1359) 
247.62527413769305

>  <compound_id>  (1359) 
32784

>  <target_id>  (1359) 
1

>  <reference_id>  (1359) 
80

>  <inspiration_ids>  (1359) 
[68, 80]

>  <energy_score>  (1359) 
102.65303370277809

>  <distance_score>  (1359) 
15.540427340377981

>  <path>  (1359) 
/opt/xchem-fragalysis-2/maxwin/BulkDock/SCRATCH/511021/C32784-P80/C32784-P80.minimised.mol

>  <scratch_subdir>  (1359) 
/opt/xchem-fragalysis-2/maxwin/BulkDock/SCRATCH/511021/C32784-P80

>  <fragmenstein_runtime>  (1359) 
7.162153720855713

>  <fragmenstein_outcome>  (1359) 
too moved

>  <fragmenstein_mode>  (1359) 
expansion

>  <fragmenstein_error>  (1359) 


$$$$
C59659-P68
     RDKit          3D

 36 39  0  0  0  0  0  0  0  0999 V2000
   -7.6631  -38.0591   22.1180 F   0  0  0  0  0  0  0  0  0  0  0  0
   -8.0641  -37.0405   22.8921 C   0  0  0  0  0  0  0  0  0  0  0  0
   -9.4290  -36.8527   23.1165 C   0  0  0  0  0  0  0  0  0  0  0  0
   -9.8684  -35.8165   23.9286 C   0  0  0  0  0  0  0  0  0  0  0  0
   -8.9381  -34.9490   24.5064 C   0  0  0  0  0  0  0  0  0  0  0  0
   -7.5544  -35.1200   24.2634 C   0  0  0  0  0  0  0  0  0  0  0  0
   -6.5074  -34.2905   24.7229 N   0  0  0  0  0  0  0  0  0  0  0  0
   -5.2371  -34.7458   24.5649 C   0  0  0  0  0  0  0  0  0  0  0  0
   -3.9876  -33.8609   25.0614 N   0  0  0  0  0  0  0  0  0  0  0  0
   -4.2147  -33.1909   26.3638 C   0  0  0  0  0  0  0  0  0  0  0  0
   -3.4671  -31.9053   26.7009 C   0  0  0  0  0  0  0  0  0  0  0  0
   -3.0604  -31.0680   25.5061 C   0  0  0  0  0  0  0  0  0  0  0  0
   -2.0267  -31.8742   24.7504 C   0  0  0  0  0  0  0  0  0  0  0  0
   -1.2904  -31.2225   23.5530 C   0  0  0  0  0  0  0  0  0  0  0  0
   -1.6950  -30.3561   22.5485 C   0  0  0  0  0  0  0  0  0  0  0  0
   -0.8156  -30.5284   21.5176 N   0  0  0  0  0  0  0  0  0  0  0  0
    0.0840  -31.4556   21.9573 C   0  0  0  0  0  0  0  0  0  0  0  0
   -0.0237  -31.6591   23.2501 N   0  0  0  0  0  0  0  0  0  0  0  0
   -2.6540  -33.3138   24.3901 C   0  0  0  0  0  0  0  0  0  0  0  0
   -5.4540  -36.1390   23.4198 S   0  0  0  0  0  0  0  0  0  0  0  0
   -7.1407  -36.1714   23.4834 C   0  0  0  0  0  0  0  0  0  0  0  0
  -10.1384  -37.5348   22.6570 H   0  0  0  0  0  0  0  0  0  0  0  0
  -10.9296  -35.6754   24.1132 H   0  0  0  0  0  0  0  0  0  0  0  0
   -9.2643  -34.1334   25.1407 H   0  0  0  0  0  0  0  0  0  0  0  0
   -3.9685  -33.8993   27.1619 H   0  0  0  0  0  0  0  0  0  0  0  0
   -5.2583  -32.9273   26.4305 H   0  0  0  0  0  0  0  0  0  0  0  0
   -4.0872  -31.2993   27.3735 H   0  0  0  0  0  0  0  0  0  0  0  0
   -2.5748  -32.1579   27.2902 H   0  0  0  0  0  0  0  0  0  0  0  0
   -2.6552  -30.1284   25.8764 H   0  0  0  0  0  0  0  0  0  0  0  0
   -3.9327  -30.8019   24.9104 H   0  0  0  0  0  0  0  0  0  0  0  0
   -1.2127  -32.0843   25.4632 H   0  0  0  0  0  0  0  0  0  0  0  0
   -2.5912  -29.7882   22.4122 H   0  0  0  0  0  0  0  0  0  0  0  0
   -0.9090  -30.2174   20.5567 H   0  0  0  0  0  0  0  0  0  0  0  0
    0.8193  -31.9038   21.2998 H   0  0  0  0  0  0  0  0  0  0  0  0
   -1.8663  -34.0355   24.6199 H   0  0  0  0  0  0  0  0  0  0  0  0
   -2.7617  -33.2719   23.3172 H   0  0  0  0  0  0  0  0  0  0  0  0
  1  2  1  0
  2  3  2  0
  3  4  1  0
  4  5  2  0
  5  6  1  0
  6  7  1  0
  7  8  2  0
  8  9  1  0
  9 10  1  0
 10 11  1  0
 11 12  1  0
 12 13  1  0
 13 14  1  0
 14 15  2  0
 15 16  1  0
 16 17  1  0
 17 18  2  0
 13 19  1  0
  8 20  1  0
 20 21  1  0
 21  2  1  0
 21  6  2  0
 19  9  1  0
 18 14  1  0
  3 22  1  0
  4 23  1  0
  5 24  1  0
 10 25  1  0
 10 26  1  0
 11 27  1  0
 11 28  1  0
 12 29  1  0
 12 30  1  0
 13 31  1  0
 15 32  1  0
 16 33  1  0
 17 34  1  0
 19 35  1  0
 19 36  1  0
M  END
>  <Energy>  (1360) 
87.807331248767738

>  <compound_id>  (1360) 
59659

>  <target_id>  (1360) 
1

>  <reference_id>  (1360) 
68

>  <inspiration_ids>  (1360) 
[68, 80]

>  <energy_score>  (1360) 
29.019759100624412

>  <distance_score>  (1360) 
20.255324902797792

>  <path>  (1360) 
/opt/xchem-fragalysis-2/maxwin/BulkDock/SCRATCH/511021/C59659-P68/C59659-P68.minimised.mol

>  <scratch_subdir>  (1360) 
/opt/xchem-fragalysis-2/maxwin/BulkDock/SCRATCH/511021/C59659-P68

>  <fragmenstein_runtime>  (1360) 
17.33015465736389

>  <fragmenstein_outcome>  (1360) 
too moved

>  <fragmenstein_mode>  (1360) 
expansion

>  <fragmenstein_error>  (1360) 


$$$$
C59659-P80
     RDKit          3D

 36 39  0  0  0  0  0  0  0  0999 V2000
   -1.6166  -30.8836   17.5636 F   0  0  0  0  0  0  0  0  0  0  0  0
   -0.9303  -30.3660   18.5937 C   0  0  0  0  0  0  0  0  0  0  0  0
   -1.1424  -30.8756   19.8759 C   0  0  0  0  0  0  0  0  0  0  0  0
   -0.4180  -30.3632   20.9445 C   0  0  0  0  0  0  0  0  0  0  0  0
    0.5151  -29.3273   20.7319 C   0  0  0  0  0  0  0  0  0  0  0  0
    0.7404  -28.7849   19.4345 C   0  0  0  0  0  0  0  0  0  0  0  0
    1.6361  -27.7330   19.0767 N   0  0  0  0  0  0  0  0  0  0  0  0
    1.5537  -27.4111   17.7918 C   0  0  0  0  0  0  0  0  0  0  0  0
    2.0953  -26.3123   17.0711 N   0  0  0  0  0  0  0  0  0  0  0  0
    1.0642  -25.5057   16.3969 C   0  0  0  0  0  0  0  0  0  0  0  0
    1.0420  -24.1041   16.9703 C   0  0  0  0  0  0  0  0  0  0  0  0
    2.2470  -23.3225   16.4757 C   0  0  0  0  0  0  0  0  0  0  0  0
    3.5581  -24.1341   16.4990 C   0  0  0  0  0  0  0  0  0  0  0  0
    4.7655  -23.1010   16.4966 C   0  0  0  0  0  0  0  0  0  0  0  0
    4.8982  -22.0143   15.6229 C   0  0  0  0  0  0  0  0  0  0  0  0
    6.1117  -21.4375   15.8733 N   0  0  0  0  0  0  0  0  0  0  0  0
    6.6739  -22.1396   16.8972 C   0  0  0  0  0  0  0  0  0  0  0  0
    5.8866  -23.1177   17.3132 N   0  0  0  0  0  0  0  0  0  0  0  0
    3.3711  -25.4904   17.4215 C   0  0  0  0  0  0  0  0  0  0  0  0
    0.4969  -28.5639   16.9306 S   0  0  0  0  0  0  0  0  0  0  0  0
    0.0113  -29.3350   18.3853 C   0  0  0  0  0  0  0  0  0  0  0  0
   -1.8782  -31.6595   20.0246 H   0  0  0  0  0  0  0  0  0  0  0  0
   -0.5799  -30.7516   21.9462 H   0  0  0  0  0  0  0  0  0  0  0  0
    1.0797  -28.9190   21.5624 H   0  0  0  0  0  0  0  0  0  0  0  0
    1.2701  -25.4941   15.3203 H   0  0  0  0  0  0  0  0  0  0  0  0
    0.0566  -25.9176   16.5211 H   0  0  0  0  0  0  0  0  0  0  0  0
    0.1246  -23.5890   16.6860 H   0  0  0  0  0  0  0  0  0  0  0  0
    1.0229  -24.1512   18.0645 H   0  0  0  0  0  0  0  0  0  0  0  0
    2.1003  -23.0182   15.4370 H   0  0  0  0  0  0  0  0  0  0  0  0
    2.3212  -22.3796   17.0279 H   0  0  0  0  0  0  0  0  0  0  0  0
    3.6510  -24.5738   15.4906 H   0  0  0  0  0  0  0  0  0  0  0  0
    4.2470  -21.6537   14.8385 H   0  0  0  0  0  0  0  0  0  0  0  0
    6.5385  -20.6828   15.3552 H   0  0  0  0  0  0  0  0  0  0  0  0
    7.6530  -21.9096   17.2966 H   0  0  0  0  0  0  0  0  0  0  0  0
    3.3348  -25.2673   18.4827 H   0  0  0  0  0  0  0  0  0  0  0  0
    4.2384  -26.1377   17.2503 H   0  0  0  0  0  0  0  0  0  0  0  0
  1  2  1  0
  2  3  2  0
  3  4  1  0
  4  5  2  0
  5  6  1  0
  6  7  1  0
  7  8  2  0
  8  9  1  0
  9 10  1  0
 10 11  1  0
 11 12  1  0
 12 13  1  0
 13 14  1  0
 14 15  2  0
 15 16  1  0
 16 17  1  0
 17 18  2  0
 13 19  1  0
  8 20  1  0
 20 21  1  0
 21  2  1  0
 21  6  2  0
 19  9  1  0
 18 14  1  0
  3 22  1  0
  4 23  1  0
  5 24  1  0
 10 25  1  0
 10 26  1  0
 11 27  1  0
 11 28  1  0
 12 29  1  0
 12 30  1  0
 13 31  1  0
 15 32  1  0
 16 33  1  0
 17 34  1  0
 19 35  1  0
 19 36  1  0
M  END
>  <Energy>  (1361) 
43.807808642090741

>  <compound_id>  (1361) 
59659

>  <target_id>  (1361) 
1

>  <reference_id>  (1361) 
80

>  <inspiration_ids>  (1361) 
[68, 80]

>  <energy_score>  (1361) 
-14.9797635060512

>  <distance_score>  (1361) 
16.50181140786575

>  <path>  (1361) 
/opt/xchem-fragalysis-2/maxwin/BulkDock/SCRATCH/511021/C59659-P80/C59659-P80.minimised.mol

>  <scratch_subdir>  (1361) 
/opt/xchem-fragalysis-2/maxwin/BulkDock/SCRATCH/511021/C59659-P80

>  <fragmenstein_runtime>  (1361) 
9.105799436569214

>  <fragmenstein_outcome>  (1361) 
too moved

>  <fragmenstein_mode>  (1361) 
expansion

>  <fragmenstein_error>  (1361) 


$$$$
C32785-P68
     RDKit          3D

 30 32  0  0  0  0  0  0  0  0999 V2000
    2.6306  -25.8042   16.3259 O   0  0  0  0  0  0  0  0  0  0  0  0
    1.2145  -25.6341   16.5148 C   0  0  0  0  0  0  0  0  0  0  0  0
    0.9043  -24.8418   17.8115 C   0  0  0  0  0  0  0  0  0  0  0  0
   -0.5290  -24.9923   18.2091 N   0  0  0  0  0  0  0  0  0  0  0  0
   -1.3168  -26.1319   18.3603 C   0  0  0  0  0  0  0  0  0  0  0  0
   -1.0828  -27.3910   18.0304 N   0  0  0  0  0  0  0  0  0  0  0  0
   -2.2535  -28.1891   18.1538 C   0  0  0  0  0  0  0  0  0  0  0  0
   -2.4494  -29.5131   17.6931 C   0  0  0  0  0  0  0  0  0  0  0  0
   -3.7172  -30.1220   17.7831 C   0  0  0  0  0  0  0  0  0  0  0  0
   -4.7672  -29.4931   18.4330 C   0  0  0  0  0  0  0  0  0  0  0  0
   -4.5797  -28.2110   18.9316 C   0  0  0  0  0  0  0  0  0  0  0  0
   -5.6054  -27.5851   19.5267 F   0  0  0  0  0  0  0  0  0  0  0  0
   -3.3454  -27.5623   18.7427 C   0  0  0  0  0  0  0  0  0  0  0  0
   -2.9065  -25.9543   19.0863 S   0  0  0  0  0  0  0  0  0  0  0  0
    1.4905  -23.3289   17.6521 C   0  0  0  0  0  0  0  0  0  0  0  0
    1.0316  -22.1854   18.1454 N   0  0  0  0  0  0  0  0  0  0  0  0
    1.8978  -21.1856   17.7189 C   0  0  0  0  0  0  0  0  0  0  0  0
    2.9195  -21.7112   16.9750 C   0  0  0  0  0  0  0  0  0  0  0  0
    2.6772  -23.0591   16.9674 N   0  0  0  0  0  0  0  0  0  0  0  0
    2.8988  -26.5228   16.9301 H   0  0  0  0  0  0  0  0  0  0  0  0
    0.7754  -26.6346   16.5209 H   0  0  0  0  0  0  0  0  0  0  0  0
    0.8248  -25.1138   15.6363 H   0  0  0  0  0  0  0  0  0  0  0  0
    1.5055  -25.2651   18.6270 H   0  0  0  0  0  0  0  0  0  0  0  0
   -0.9795  -24.0896   18.3513 H   0  0  0  0  0  0  0  0  0  0  0  0
   -1.6296  -30.0282   17.2002 H   0  0  0  0  0  0  0  0  0  0  0  0
   -3.8698  -31.0984   17.3297 H   0  0  0  0  0  0  0  0  0  0  0  0
   -5.7346  -29.9748   18.5299 H   0  0  0  0  0  0  0  0  0  0  0  0
    1.7208  -20.1474   17.9582 H   0  0  0  0  0  0  0  0  0  0  0  0
    3.7596  -21.2645   16.4659 H   0  0  0  0  0  0  0  0  0  0  0  0
    3.2255  -23.7740   16.5033 H   0  0  0  0  0  0  0  0  0  0  0  0
  1  2  1  0
  2  3  1  0
  3  4  1  0
  4  5  1  0
  5  6  2  0
  6  7  1  0
  7  8  2  0
  8  9  1  0
  9 10  2  0
 10 11  1  0
 11 12  1  0
 11 13  2  0
 13 14  1  0
  3 15  1  0
 15 16  2  0
 16 17  1  0
 17 18  2  0
 18 19  1  0
 14  5  1  0
 19 15  1  0
 13  7  1  0
  1 20  1  0
  2 21  1  0
  2 22  1  0
  3 23  1  0
  4 24  1  0
  8 25  1  0
  9 26  1  0
 10 27  1  0
 17 28  1  0
 18 29  1  0
 19 30  1  0
M  END
>  <Energy>  (1362) 
27.177595014423552

>  <compound_id>  (1362) 
32785

>  <target_id>  (1362) 
1

>  <reference_id>  (1362) 
68

>  <inspiration_ids>  (1362) 
[68, 80]

>  <energy_score>  (1362) 
-87.85662550178938

>  <distance_score>  (1362) 
16.444517146706584

>  <path>  (1362) 
/opt/xchem-fragalysis-2/maxwin/BulkDock/SCRATCH/511021/C32785-P68/C32785-P68.minimised.mol

>  <scratch_subdir>  (1362) 
/opt/xchem-fragalysis-2/maxwin/BulkDock/SCRATCH/511021/C32785-P68

>  <fragmenstein_runtime>  (1362) 
12.705000638961792

>  <fragmenstein_outcome>  (1362) 
too moved

>  <fragmenstein_mode>  (1362) 
expansion

>  <fragmenstein_error>  (1362) 


$$$$
C32785-P80
     RDKit          3D

 30 32  0  0  0  0  0  0  0  0999 V2000
    8.5176   -2.9840   14.7117 O   0  0  0  0  0  0  0  0  0  0  0  0
    9.8740   -3.3372   14.9270 C   0  0  0  0  0  0  0  0  0  0  0  0
   10.6471   -4.7643   14.7596 C   0  0  0  0  0  0  0  0  0  0  0  0
   10.3987   -6.7048   14.9500 N   0  0  0  0  0  0  0  0  0  0  0  0
    9.0978   -7.9268   15.0468 C   0  0  0  0  0  0  0  0  0  0  0  0
    7.7490   -8.0057   14.8467 N   0  0  0  0  0  0  0  0  0  0  0  0
    6.9851   -9.1997   15.3569 C   0  0  0  0  0  0  0  0  0  0  0  0
    5.5577   -9.3461   15.4804 C   0  0  0  0  0  0  0  0  0  0  0  0
    4.9560  -10.3686   16.2510 C   0  0  0  0  0  0  0  0  0  0  0  0
    5.7608  -11.2787   16.9050 C   0  0  0  0  0  0  0  0  0  0  0  0
    7.1396  -11.2823   16.6444 C   0  0  0  0  0  0  0  0  0  0  0  0
    7.8969  -12.2422   17.1951 F   0  0  0  0  0  0  0  0  0  0  0  0
    7.7439  -10.2317   15.8875 C   0  0  0  0  0  0  0  0  0  0  0  0
    9.4133   -9.9442   15.4533 S   0  0  0  0  0  0  0  0  0  0  0  0
   11.8940   -4.2226   15.7329 C   0  0  0  0  0  0  0  0  0  0  0  0
   12.1996   -4.6396   16.9345 N   0  0  0  0  0  0  0  0  0  0  0  0
   13.2008   -3.8239   17.3899 C   0  0  0  0  0  0  0  0  0  0  0  0
   13.4935   -2.8534   16.4671 C   0  0  0  0  0  0  0  0  0  0  0  0
   12.6617   -3.1095   15.4158 N   0  0  0  0  0  0  0  0  0  0  0  0
    7.9462   -3.4086   15.3566 H   0  0  0  0  0  0  0  0  0  0  0  0
   10.4143   -2.7485   14.1831 H   0  0  0  0  0  0  0  0  0  0  0  0
   10.2327   -2.7230   15.7648 H   0  0  0  0  0  0  0  0  0  0  0  0
   10.9965   -4.6715   13.7134 H   0  0  0  0  0  0  0  0  0  0  0  0
   10.9287   -6.6994   15.8221 H   0  0  0  0  0  0  0  0  0  0  0  0
    4.9344   -8.5703   15.0401 H   0  0  0  0  0  0  0  0  0  0  0  0
    3.8778  -10.3879   16.3778 H   0  0  0  0  0  0  0  0  0  0  0  0
    5.3223  -11.9815   17.6080 H   0  0  0  0  0  0  0  0  0  0  0  0
   13.6413   -3.9747   18.3671 H   0  0  0  0  0  0  0  0  0  0  0  0
   14.2045   -2.0401   16.4632 H   0  0  0  0  0  0  0  0  0  0  0  0
   12.6120   -2.5841   14.5522 H   0  0  0  0  0  0  0  0  0  0  0  0
  1  2  1  0
  2  3  1  0
  3  4  1  0
  4  5  1  0
  5  6  2  0
  6  7  1  0
  7  8  2  0
  8  9  1  0
  9 10  2  0
 10 11  1  0
 11 12  1  0
 11 13  2  0
 13 14  1  0
  3 15  1  0
 15 16  2  0
 16 17  1  0
 17 18  2  0
 18 19  1  0
 14  5  1  0
 19 15  1  0
 13  7  1  0
  1 20  1  0
  2 21  1  0
  2 22  1  0
  3 23  1  0
  4 24  1  0
  8 25  1  0
  9 26  1  0
 10 27  1  0
 17 28  1  0
 18 29  1  0
 19 30  1  0
M  END
>  <Energy>  (1363) 
276.61423312707097

>  <compound_id>  (1363) 
32785

>  <target_id>  (1363) 
1

>  <reference_id>  (1363) 
80

>  <inspiration_ids>  (1363) 
[68, 80]

>  <energy_score>  (1363) 
161.58001261085928

>  <distance_score>  (1363) 
24.918790520399558

>  <path>  (1363) 
/opt/xchem-fragalysis-2/maxwin/BulkDock/SCRATCH/511021/C32785-P80/C32785-P80.minimised.mol

>  <scratch_subdir>  (1363) 
/opt/xchem-fragalysis-2/maxwin/BulkDock/SCRATCH/511021/C32785-P80

>  <fragmenstein_runtime>  (1363) 
9.02588963508606

>  <fragmenstein_outcome>  (1363) 
too moved

>  <fragmenstein_mode>  (1363) 
expansion

>  <fragmenstein_error>  (1363) 


$$$$
C32786-P68
     RDKit          3D

 32 34  0  0  0  0  0  0  0  0999 V2000
    4.1058  -24.0046   17.3047 C   0  0  0  0  0  0  0  0  0  0  0  0
    2.9611  -23.3540   16.5032 C   0  0  0  0  0  0  0  0  0  0  0  0
    2.9840  -23.9480   15.0745 C   0  0  0  0  0  0  0  0  0  0  0  0
    1.6267  -23.6626   17.1739 N   0  0  0  0  0  0  0  0  0  0  0  0
    0.9616  -24.8772   17.4731 C   0  0  0  0  0  0  0  0  0  0  0  0
   -0.2358  -24.8836   18.0532 N   0  0  0  0  0  0  0  0  0  0  0  0
   -0.7557  -26.1722   18.3132 C   0  0  0  0  0  0  0  0  0  0  0  0
   -1.9958  -26.5120   18.9339 C   0  0  0  0  0  0  0  0  0  0  0  0
   -2.3755  -27.8486   19.1449 C   0  0  0  0  0  0  0  0  0  0  0  0
   -1.5330  -28.8668   18.7271 C   0  0  0  0  0  0  0  0  0  0  0  0
   -0.3202  -28.5543   18.0961 C   0  0  0  0  0  0  0  0  0  0  0  0
    0.4742  -29.5550   17.6878 F   0  0  0  0  0  0  0  0  0  0  0  0
    0.0633  -27.2102   17.8931 C   0  0  0  0  0  0  0  0  0  0  0  0
    1.4722  -26.5163   17.1477 S   0  0  0  0  0  0  0  0  0  0  0  0
    3.4216  -21.7732   16.2936 C   0  0  0  0  0  0  0  0  0  0  0  0
    4.6813  -21.3428   16.1292 N   0  0  0  0  0  0  0  0  0  0  0  0
    4.6220  -20.0124   15.7676 C   0  0  0  0  0  0  0  0  0  0  0  0
    3.3247  -19.5889   15.7504 C   0  0  0  0  0  0  0  0  0  0  0  0
    2.5713  -20.6981   16.0787 N   0  0  0  0  0  0  0  0  0  0  0  0
    5.0508  -23.9823   16.7481 H   0  0  0  0  0  0  0  0  0  0  0  0
    4.2829  -23.4536   18.2263 H   0  0  0  0  0  0  0  0  0  0  0  0
    3.9129  -25.0473   17.5638 H   0  0  0  0  0  0  0  0  0  0  0  0
    3.9818  -23.8585   14.6264 H   0  0  0  0  0  0  0  0  0  0  0  0
    2.7169  -25.0063   15.0499 H   0  0  0  0  0  0  0  0  0  0  0  0
    2.3045  -23.4143   14.4055 H   0  0  0  0  0  0  0  0  0  0  0  0
    1.3943  -22.9440   17.8544 H   0  0  0  0  0  0  0  0  0  0  0  0
   -2.6488  -25.7059   19.2556 H   0  0  0  0  0  0  0  0  0  0  0  0
   -3.3195  -28.0762   19.6310 H   0  0  0  0  0  0  0  0  0  0  0  0
   -1.7975  -29.9093   18.8821 H   0  0  0  0  0  0  0  0  0  0  0  0
    5.5117  -19.4469   15.5305 H   0  0  0  0  0  0  0  0  0  0  0  0
    2.8534  -18.6531   15.4838 H   0  0  0  0  0  0  0  0  0  0  0  0
    1.5574  -20.7277   16.0323 H   0  0  0  0  0  0  0  0  0  0  0  0
  1  2  1  0
  2  3  1  0
  2  4  1  0
  4  5  1  0
  5  6  2  0
  6  7  1  0
  7  8  2  0
  8  9  1  0
  9 10  2  0
 10 11  1  0
 11 12  1  0
 11 13  2  0
 13 14  1  0
  2 15  1  0
 15 16  2  0
 16 17  1  0
 17 18  2  0
 18 19  1  0
 14  5  1  0
 19 15  1  0
 13  7  1  0
  1 20  1  0
  1 21  1  0
  1 22  1  0
  3 23  1  0
  3 24  1  0
  3 25  1  0
  4 26  1  0
  8 27  1  0
  9 28  1  0
 10 29  1  0
 17 30  1  0
 18 31  1  0
 19 32  1  0
M  END
>  <Energy>  (1364) 
16.715850864343015

>  <compound_id>  (1364) 
32786

>  <target_id>  (1364) 
1

>  <reference_id>  (1364) 
68

>  <inspiration_ids>  (1364) 
[68, 80]

>  <energy_score>  (1364) 
-50.97774860102129

>  <distance_score>  (1364) 
16.44632691928019

>  <path>  (1364) 
/opt/xchem-fragalysis-2/maxwin/BulkDock/SCRATCH/511021/C32786-P68/C32786-P68.minimised.mol

>  <scratch_subdir>  (1364) 
/opt/xchem-fragalysis-2/maxwin/BulkDock/SCRATCH/511021/C32786-P68

>  <fragmenstein_runtime>  (1364) 
10.64907193183899

>  <fragmenstein_outcome>  (1364) 
too moved

>  <fragmenstein_mode>  (1364) 
expansion

>  <fragmenstein_error>  (1364) 


$$$$
C32786-P80
     RDKit          3D

 32 34  0  0  0  0  0  0  0  0999 V2000
    0.4653  -24.6504   18.2594 C   0  0  0  0  0  0  0  0  0  0  0  0
    1.3266  -25.2169   17.1233 C   0  0  0  0  0  0  0  0  0  0  0  0
    2.5142  -26.0355   17.6671 C   0  0  0  0  0  0  0  0  0  0  0  0
    0.4212  -26.1955   16.3944 N   0  0  0  0  0  0  0  0  0  0  0  0
   -0.4304  -27.1358   16.9997 C   0  0  0  0  0  0  0  0  0  0  0  0
   -0.4004  -27.6135   18.2371 N   0  0  0  0  0  0  0  0  0  0  0  0
   -1.4975  -28.4529   18.5331 C   0  0  0  0  0  0  0  0  0  0  0  0
   -1.8100  -29.0631   19.7807 C   0  0  0  0  0  0  0  0  0  0  0  0
   -2.9652  -29.8523   19.9356 C   0  0  0  0  0  0  0  0  0  0  0  0
   -3.8146  -30.0552   18.8561 C   0  0  0  0  0  0  0  0  0  0  0  0
   -3.5144  -29.4774   17.6188 C   0  0  0  0  0  0  0  0  0  0  0  0
   -4.3439  -29.6826   16.5847 F   0  0  0  0  0  0  0  0  0  0  0  0
   -2.3624  -28.6773   17.4671 C   0  0  0  0  0  0  0  0  0  0  0  0
   -1.7542  -27.8296   16.0865 S   0  0  0  0  0  0  0  0  0  0  0  0
    2.0046  -23.9421   16.2815 C   0  0  0  0  0  0  0  0  0  0  0  0
    2.4725  -23.9132   15.0341 N   0  0  0  0  0  0  0  0  0  0  0  0
    2.9947  -22.6413   14.8085 C   0  0  0  0  0  0  0  0  0  0  0  0
    2.8812  -21.8656   15.9282 C   0  0  0  0  0  0  0  0  0  0  0  0
    2.2751  -22.6886   16.8417 N   0  0  0  0  0  0  0  0  0  0  0  0
    0.1294  -25.4189   18.9597 H   0  0  0  0  0  0  0  0  0  0  0  0
    0.9786  -23.9337   18.8839 H   0  0  0  0  0  0  0  0  0  0  0  0
   -0.4243  -24.1664   17.8420 H   0  0  0  0  0  0  0  0  0  0  0  0
    3.2407  -25.4102   18.1902 H   0  0  0  0  0  0  0  0  0  0  0  0
    2.1900  -26.8163   18.3631 H   0  0  0  0  0  0  0  0  0  0  0  0
    3.0476  -26.5298   16.8462 H   0  0  0  0  0  0  0  0  0  0  0  0
    0.2110  -25.8965   15.4485 H   0  0  0  0  0  0  0  0  0  0  0  0
   -1.1456  -28.8952   20.6240 H   0  0  0  0  0  0  0  0  0  0  0  0
   -3.1924  -30.2984   20.9016 H   0  0  0  0  0  0  0  0  0  0  0  0
   -4.7129  -30.6573   18.9639 H   0  0  0  0  0  0  0  0  0  0  0  0
    3.4111  -22.3737   13.8465 H   0  0  0  0  0  0  0  0  0  0  0  0
    3.1500  -20.8454   16.1602 H   0  0  0  0  0  0  0  0  0  0  0  0
    2.1631  -22.4735   17.8252 H   0  0  0  0  0  0  0  0  0  0  0  0
  1  2  1  0
  2  3  1  0
  2  4  1  0
  4  5  1  0
  5  6  2  0
  6  7  1  0
  7  8  2  0
  8  9  1  0
  9 10  2  0
 10 11  1  0
 11 12  1  0
 11 13  2  0
 13 14  1  0
  2 15  1  0
 15 16  2  0
 16 17  1  0
 17 18  2  0
 18 19  1  0
 14  5  1  0
 19 15  1  0
 13  7  1  0
  1 20  1  0
  1 21  1  0
  1 22  1  0
  3 23  1  0
  3 24  1  0
  3 25  1  0
  4 26  1  0
  8 27  1  0
  9 28  1  0
 10 29  1  0
 17 30  1  0
 18 31  1  0
 19 32  1  0
M  END
>  <Energy>  (1365) 
11.611411287897116

>  <compound_id>  (1365) 
32786

>  <target_id>  (1365) 
1

>  <reference_id>  (1365) 
80

>  <inspiration_ids>  (1365) 
[68, 80]

>  <energy_score>  (1365) 
-56.082188177467174

>  <distance_score>  (1365) 
16.594071633717178

>  <path>  (1365) 
/opt/xchem-fragalysis-2/maxwin/BulkDock/SCRATCH/511021/C32786-P80/C32786-P80.minimised.mol

>  <scratch_subdir>  (1365) 
/opt/xchem-fragalysis-2/maxwin/BulkDock/SCRATCH/511021/C32786-P80

>  <fragmenstein_runtime>  (1365) 
9.01110029220581

>  <fragmenstein_outcome>  (1365) 
too moved

>  <fragmenstein_mode>  (1365) 
expansion

>  <fragmenstein_error>  (1365) 


$$$$
C32787-P68
     RDKit          3D

 36 38  0  0  0  0  0  0  0  0999 V2000
   -3.6854  -17.0923   21.5963 C   0  0  0  0  0  0  0  0  0  0  0  0
   -2.3345  -18.2444   21.4032 N   0  0  0  0  0  0  0  0  0  0  0  0
   -1.2418  -16.5264   21.2143 C   0  0  0  0  0  0  0  0  0  0  0  0
    0.6299  -16.3233   20.3880 C   0  0  0  0  0  0  0  0  0  0  0  0
    1.7149  -15.4997   20.5102 N   0  0  0  0  0  0  0  0  0  0  0  0
    2.5011  -15.1851   19.2913 C   0  0  0  0  0  0  0  0  0  0  0  0
    2.1151  -15.9584   18.2811 C   0  0  0  0  0  0  0  0  0  0  0  0
    1.1557  -16.7154   18.8938 N   0  0  0  0  0  0  0  0  0  0  0  0
   -2.3753  -19.4284   22.6773 C   0  0  0  0  0  0  0  0  0  0  0  0
   -1.8446  -19.4244   23.7442 O   0  0  0  0  0  0  0  0  0  0  0  0
   -3.2310  -20.5082   22.0065 N   0  0  0  0  0  0  0  0  0  0  0  0
   -3.6779  -21.7969   22.4979 C   0  0  0  0  0  0  0  0  0  0  0  0
   -3.4210  -22.0730   23.8526 C   0  0  0  0  0  0  0  0  0  0  0  0
   -3.7506  -23.2799   24.4902 C   0  0  0  0  0  0  0  0  0  0  0  0
   -4.3713  -24.2969   23.7685 C   0  0  0  0  0  0  0  0  0  0  0  0
   -4.7511  -25.5008   24.3154 N   0  0  0  0  0  0  0  0  0  0  0  0
   -5.3624  -26.2276   23.4148 C   0  0  0  0  0  0  0  0  0  0  0  0
   -6.0179  -27.5238   23.7351 C   0  0  0  0  0  0  0  0  0  0  0  0
   -7.0889  -27.3705   24.5666 F   0  0  0  0  0  0  0  0  0  0  0  0
   -5.1727  -28.3814   24.3685 F   0  0  0  0  0  0  0  0  0  0  0  0
   -5.3788  -25.5442   21.8234 S   0  0  0  0  0  0  0  0  0  0  0  0
   -4.6439  -24.0798   22.4133 C   0  0  0  0  0  0  0  0  0  0  0  0
   -4.3136  -22.8272   21.7607 C   0  0  0  0  0  0  0  0  0  0  0  0
   -4.5240  -17.6070   21.0826 H   0  0  0  0  0  0  0  0  0  0  0  0
   -4.2371  -17.0542   22.5481 H   0  0  0  0  0  0  0  0  0  0  0  0
   -3.5959  -16.1940   20.9977 H   0  0  0  0  0  0  0  0  0  0  0  0
   -1.0549  -15.7234   21.8958 H   0  0  0  0  0  0  0  0  0  0  0  0
   -1.8093  -16.0429   20.3911 H   0  0  0  0  0  0  0  0  0  0  0  0
    3.2903  -14.4435   19.2709 H   0  0  0  0  0  0  0  0  0  0  0  0
    2.5164  -16.1314   17.2919 H   0  0  0  0  0  0  0  0  0  0  0  0
    1.0680  -17.6822   18.6630 H   0  0  0  0  0  0  0  0  0  0  0  0
   -3.4550  -20.2190   21.0639 H   0  0  0  0  0  0  0  0  0  0  0  0
   -2.9325  -21.3308   24.4810 H   0  0  0  0  0  0  0  0  0  0  0  0
   -3.5212  -23.4215   25.5421 H   0  0  0  0  0  0  0  0  0  0  0  0
   -6.3802  -27.9972   22.8369 H   0  0  0  0  0  0  0  0  0  0  0  0
   -4.5315  -22.7012   20.7047 H   0  0  0  0  0  0  0  0  0  0  0  0
  1  2  1  0
  2  3  1  0
  3  4  1  0
  4  5  2  0
  5  6  1  0
  6  7  2  0
  7  8  1  0
  2  9  1  0
  9 10  2  0
  9 11  1  0
 11 12  1  0
 12 13  2  0
 13 14  1  0
 14 15  2  0
 15 16  1  0
 16 17  2  0
 17 18  1  0
 18 19  1  0
 18 20  1  0
 17 21  1  0
 21 22  1  0
 22 23  2  0
  8  4  1  0
 23 12  1  0
 22 15  1  0
  1 24  1  0
  1 25  1  0
  1 26  1  0
  3 27  1  0
  3 28  1  0
  6 29  1  0
  7 30  1  0
  8 31  1  0
 11 32  1  0
 13 33  1  0
 14 34  1  0
 18 35  1  0
 23 36  1  0
M  END
>  <Energy>  (1366) 
357.17584854687914

>  <compound_id>  (1366) 
32787

>  <target_id>  (1366) 
1

>  <reference_id>  (1366) 
68

>  <inspiration_ids>  (1366) 
[68, 80]

>  <energy_score>  (1366) 
313.19311956990896

>  <distance_score>  (1366) 
15.173638088312613

>  <path>  (1366) 
/opt/xchem-fragalysis-2/maxwin/BulkDock/SCRATCH/511021/C32787-P68/C32787-P68.minimised.mol

>  <scratch_subdir>  (1366) 
/opt/xchem-fragalysis-2/maxwin/BulkDock/SCRATCH/511021/C32787-P68

>  <fragmenstein_runtime>  (1366) 
24.71189045906067

>  <fragmenstein_outcome>  (1366) 
too moved

>  <fragmenstein_mode>  (1366) 
expansion

>  <fragmenstein_error>  (1366) 


$$$$
C32787-P80
     RDKit          3D

 36 38  0  0  0  0  0  0  0  0999 V2000
    0.0409  -23.6647   16.0711 C   0  0  0  0  0  0  0  0  0  0  0  0
   -0.6778  -23.1878   17.2936 N   0  0  0  0  0  0  0  0  0  0  0  0
   -0.5996  -21.7969   16.5248 C   0  0  0  0  0  0  0  0  0  0  0  0
    0.6778  -20.9481   16.2329 C   0  0  0  0  0  0  0  0  0  0  0  0
    0.8208  -20.0845   15.2264 N   0  0  0  0  0  0  0  0  0  0  0  0
    2.1366  -19.6967   15.2097 C   0  0  0  0  0  0  0  0  0  0  0  0
    2.8064  -20.3364   16.2126 C   0  0  0  0  0  0  0  0  0  0  0  0
    1.8409  -20.9528   16.9691 N   0  0  0  0  0  0  0  0  0  0  0  0
   -1.8860  -24.0984   17.5827 C   0  0  0  0  0  0  0  0  0  0  0  0
   -3.0040  -24.0037   17.2182 O   0  0  0  0  0  0  0  0  0  0  0  0
   -1.2473  -25.1021   18.5013 N   0  0  0  0  0  0  0  0  0  0  0  0
   -1.7862  -26.2843   19.1226 C   0  0  0  0  0  0  0  0  0  0  0  0
   -1.0058  -26.9362   20.0855 C   0  0  0  0  0  0  0  0  0  0  0  0
   -1.4326  -28.1081   20.7550 C   0  0  0  0  0  0  0  0  0  0  0  0
   -2.6739  -28.6933   20.4520 C   0  0  0  0  0  0  0  0  0  0  0  0
   -3.1873  -29.8490   21.0266 N   0  0  0  0  0  0  0  0  0  0  0  0
   -4.3761  -30.1169   20.5213 C   0  0  0  0  0  0  0  0  0  0  0  0
   -5.2491  -31.2636   20.9386 C   0  0  0  0  0  0  0  0  0  0  0  0
   -5.6349  -32.0200   19.8702 F   0  0  0  0  0  0  0  0  0  0  0  0
   -6.3867  -30.8343   21.5450 F   0  0  0  0  0  0  0  0  0  0  0  0
   -4.8943  -29.0242   19.2920 S   0  0  0  0  0  0  0  0  0  0  0  0
   -3.4646  -28.0664   19.4862 C   0  0  0  0  0  0  0  0  0  0  0  0
   -3.0480  -26.8546   18.8317 C   0  0  0  0  0  0  0  0  0  0  0  0
    0.1575  -24.7500   16.2103 H   0  0  0  0  0  0  0  0  0  0  0  0
    1.0771  -23.3229   15.9858 H   0  0  0  0  0  0  0  0  0  0  0  0
   -0.5412  -23.6056   15.1396 H   0  0  0  0  0  0  0  0  0  0  0  0
   -1.2600  -21.8111   15.6408 H   0  0  0  0  0  0  0  0  0  0  0  0
   -1.1812  -21.1610   17.2077 H   0  0  0  0  0  0  0  0  0  0  0  0
    2.5269  -19.0519   14.4350 H   0  0  0  0  0  0  0  0  0  0  0  0
    3.8441  -20.4211   16.4664 H   0  0  0  0  0  0  0  0  0  0  0  0
    1.9831  -21.4582   17.8343 H   0  0  0  0  0  0  0  0  0  0  0  0
   -0.2855  -24.8389   18.6649 H   0  0  0  0  0  0  0  0  0  0  0  0
   -0.0309  -26.5314   20.3526 H   0  0  0  0  0  0  0  0  0  0  0  0
   -0.7948  -28.5714   21.5021 H   0  0  0  0  0  0  0  0  0  0  0  0
   -4.7204  -31.9181   21.6371 H   0  0  0  0  0  0  0  0  0  0  0  0
   -3.7002  -26.3973   18.0918 H   0  0  0  0  0  0  0  0  0  0  0  0
  1  2  1  0
  2  3  1  0
  3  4  1  0
  4  5  2  0
  5  6  1  0
  6  7  2  0
  7  8  1  0
  2  9  1  0
  9 10  2  0
  9 11  1  0
 11 12  1  0
 12 13  2  0
 13 14  1  0
 14 15  2  0
 15 16  1  0
 16 17  2  0
 17 18  1  0
 18 19  1  0
 18 20  1  0
 17 21  1  0
 21 22  1  0
 22 23  2  0
  8  4  1  0
 23 12  1  0
 22 15  1  0
  1 24  1  0
  1 25  1  0
  1 26  1  0
  3 27  1  0
  3 28  1  0
  6 29  1  0
  7 30  1  0
  8 31  1  0
 11 32  1  0
 13 33  1  0
 14 34  1  0
 18 35  1  0
 23 36  1  0
M  END
>  <Energy>  (1367) 
79.403032136996998

>  <compound_id>  (1367) 
32787

>  <target_id>  (1367) 
1

>  <reference_id>  (1367) 
80

>  <inspiration_ids>  (1367) 
[68, 80]

>  <energy_score>  (1367) 
35.420303160036156

>  <distance_score>  (1367) 
15.501163965435564

>  <path>  (1367) 
/opt/xchem-fragalysis-2/maxwin/BulkDock/SCRATCH/511021/C32787-P80/C32787-P80.minimised.mol

>  <scratch_subdir>  (1367) 
/opt/xchem-fragalysis-2/maxwin/BulkDock/SCRATCH/511021/C32787-P80

>  <fragmenstein_runtime>  (1367) 
20.656574249267578

>  <fragmenstein_outcome>  (1367) 
too moved

>  <fragmenstein_mode>  (1367) 
expansion

>  <fragmenstein_error>  (1367) 


$$$$
C59660-P68
     RDKit          3D

 39 41  0  0  0  0  0  0  0  0999 V2000
    1.4225  -32.0368   20.4584 C   0  0  0  0  0  0  0  0  0  0  0  0
    0.0291  -31.5614   20.0617 C   0  0  0  0  0  0  0  0  0  0  0  0
    0.0580  -30.1397   19.5993 C   0  0  0  0  0  0  0  0  0  0  0  0
   -0.2707  -29.1110   20.3503 N   0  0  0  0  0  0  0  0  0  0  0  0
    0.2309  -27.9495   19.7777 C   0  0  0  0  0  0  0  0  0  0  0  0
    0.2384  -26.6767   20.3667 C   0  0  0  0  0  0  0  0  0  0  0  0
    0.9507  -25.6179   19.7473 C   0  0  0  0  0  0  0  0  0  0  0  0
    1.6372  -25.7424   18.5266 C   0  0  0  0  0  0  0  0  0  0  0  0
    2.3856  -24.5956   18.0442 N   0  0  0  0  0  0  0  0  0  0  0  0
    3.1610  -24.3893   16.7607 C   0  0  0  0  0  0  0  0  0  0  0  0
    3.3183  -25.1140   15.8411 O   0  0  0  0  0  0  0  0  0  0  0  0
    3.6155  -22.9083   16.9344 N   0  0  0  0  0  0  0  0  0  0  0  0
    2.5561  -21.9954   16.4645 C   0  0  0  0  0  0  0  0  0  0  0  0
    4.5259  -21.9764   15.9791 C   0  0  0  0  0  0  0  0  0  0  0  0
    4.7475  -20.4004   15.9071 C   0  0  0  0  0  0  0  0  0  0  0  0
    3.8729  -19.3845   15.5458 C   0  0  0  0  0  0  0  0  0  0  0  0
    4.6091  -18.2371   15.3972 N   0  0  0  0  0  0  0  0  0  0  0  0
    5.9161  -18.5569   15.6056 C   0  0  0  0  0  0  0  0  0  0  0  0
    6.0464  -19.8333   15.9227 N   0  0  0  0  0  0  0  0  0  0  0  0
    1.5322  -26.9931   17.8871 C   0  0  0  0  0  0  0  0  0  0  0  0
    0.8525  -28.0852   18.5324 C   0  0  0  0  0  0  0  0  0  0  0  0
    0.6653  -29.7368   18.0378 S   0  0  0  0  0  0  0  0  0  0  0  0
    2.0994  -32.0566   19.5977 H   0  0  0  0  0  0  0  0  0  0  0  0
    1.8635  -31.3792   21.2159 H   0  0  0  0  0  0  0  0  0  0  0  0
    1.3829  -33.0466   20.8743 H   0  0  0  0  0  0  0  0  0  0  0  0
   -0.6122  -31.6228   20.9454 H   0  0  0  0  0  0  0  0  0  0  0  0
   -0.3853  -32.2143   19.2872 H   0  0  0  0  0  0  0  0  0  0  0  0
   -0.2489  -26.5217   21.3227 H   0  0  0  0  0  0  0  0  0  0  0  0
    0.9722  -24.6584   20.2611 H   0  0  0  0  0  0  0  0  0  0  0  0
    2.5302  -23.7931   18.6579 H   0  0  0  0  0  0  0  0  0  0  0  0
    2.5831  -21.0472   17.0120 H   0  0  0  0  0  0  0  0  0  0  0  0
    2.4268  -21.9177   15.3776 H   0  0  0  0  0  0  0  0  0  0  0  0
    1.6071  -22.4276   16.8108 H   0  0  0  0  0  0  0  0  0  0  0  0
    5.5240  -22.3576   16.2459 H   0  0  0  0  0  0  0  0  0  0  0  0
    4.3978  -22.3473   14.9473 H   0  0  0  0  0  0  0  0  0  0  0  0
    2.8110  -19.3775   15.3252 H   0  0  0  0  0  0  0  0  0  0  0  0
    4.2218  -17.3550   15.1005 H   0  0  0  0  0  0  0  0  0  0  0  0
    6.7189  -17.8397   15.5113 H   0  0  0  0  0  0  0  0  0  0  0  0
    2.0244  -27.1605   16.9324 H   0  0  0  0  0  0  0  0  0  0  0  0
  1  2  1  0
  2  3  1  0
  3  4  2  0
  4  5  1  0
  5  6  2  0
  6  7  1  0
  7  8  2  0
  8  9  1  0
  9 10  1  0
 10 11  2  0
 10 12  1  0
 12 13  1  0
 12 14  1  0
 14 15  1  0
 15 16  2  0
 16 17  1  0
 17 18  1  0
 18 19  2  0
  8 20  1  0
 20 21  2  0
 21 22  1  0
 22  3  1  0
 21  5  1  0
 19 15  1  0
  1 23  1  0
  1 24  1  0
  1 25  1  0
  2 26  1  0
  2 27  1  0
  6 28  1  0
  7 29  1  0
  9 30  1  0
 13 31  1  0
 13 32  1  0
 13 33  1  0
 14 34  1  0
 14 35  1  0
 16 36  1  0
 17 37  1  0
 18 38  1  0
 20 39  1  0
M  END
>  <Energy>  (1368) 
70.590919126129123

>  <compound_id>  (1368) 
59660

>  <target_id>  (1368) 
1

>  <reference_id>  (1368) 
68

>  <inspiration_ids>  (1368) 
[68, 80]

>  <energy_score>  (1368) 
43.79781861176758

>  <distance_score>  (1368) 
16.27431480674042

>  <path>  (1368) 
/opt/xchem-fragalysis-2/maxwin/BulkDock/SCRATCH/511021/C59660-P68/C59660-P68.minimised.mol

>  <scratch_subdir>  (1368) 
/opt/xchem-fragalysis-2/maxwin/BulkDock/SCRATCH/511021/C59660-P68

>  <fragmenstein_runtime>  (1368) 
20.45403742790222

>  <fragmenstein_outcome>  (1368) 
too moved

>  <fragmenstein_mode>  (1368) 
expansion

>  <fragmenstein_error>  (1368) 


$$$$
C59660-P80
     RDKit          3D

 39 41  0  0  0  0  0  0  0  0999 V2000
   -7.5714  -23.0099   20.8604 C   0  0  0  0  0  0  0  0  0  0  0  0
   -6.6348  -22.5687   21.9740 C   0  0  0  0  0  0  0  0  0  0  0  0
   -5.8276  -21.3736   21.5753 C   0  0  0  0  0  0  0  0  0  0  0  0
   -6.2127  -20.1257   21.7494 N   0  0  0  0  0  0  0  0  0  0  0  0
   -5.2410  -19.2373   21.2797 C   0  0  0  0  0  0  0  0  0  0  0  0
   -5.2589  -17.8205   21.2036 C   0  0  0  0  0  0  0  0  0  0  0  0
   -4.1240  -17.0446   20.7015 C   0  0  0  0  0  0  0  0  0  0  0  0
   -2.8857  -17.5999   20.3685 C   0  0  0  0  0  0  0  0  0  0  0  0
   -1.6897  -16.9036   19.7399 N   0  0  0  0  0  0  0  0  0  0  0  0
   -0.1004  -16.5507   20.3886 C   0  0  0  0  0  0  0  0  0  0  0  0
    0.2203  -16.7473   21.4601 O   0  0  0  0  0  0  0  0  0  0  0  0
    0.7412  -15.8752   19.1188 N   0  0  0  0  0  0  0  0  0  0  0  0
    1.6330  -17.3105   18.1028 C   0  0  0  0  0  0  0  0  0  0  0  0
    2.4845  -15.0317   19.0160 C   0  0  0  0  0  0  0  0  0  0  0  0
    2.8326  -13.3480   19.4451 C   0  0  0  0  0  0  0  0  0  0  0  0
    3.7557  -12.4917   18.8362 C   0  0  0  0  0  0  0  0  0  0  0  0
    3.7875  -11.3355   19.5625 N   0  0  0  0  0  0  0  0  0  0  0  0
    3.0085  -11.5397   20.6567 C   0  0  0  0  0  0  0  0  0  0  0  0
    2.4638  -12.7396   20.6489 N   0  0  0  0  0  0  0  0  0  0  0  0
   -3.0363  -18.9787   20.2898 C   0  0  0  0  0  0  0  0  0  0  0  0
   -4.0997  -19.8276   20.7662 C   0  0  0  0  0  0  0  0  0  0  0  0
   -4.2995  -21.5563   20.8226 S   0  0  0  0  0  0  0  0  0  0  0  0
   -8.2622  -22.2066   20.5823 H   0  0  0  0  0  0  0  0  0  0  0  0
   -8.1640  -23.8711   21.1833 H   0  0  0  0  0  0  0  0  0  0  0  0
   -7.0148  -23.3002   19.9630 H   0  0  0  0  0  0  0  0  0  0  0  0
   -7.2259  -22.3169   22.8625 H   0  0  0  0  0  0  0  0  0  0  0  0
   -5.9809  -23.4013   22.2585 H   0  0  0  0  0  0  0  0  0  0  0  0
   -6.1499  -17.2874   21.5267 H   0  0  0  0  0  0  0  0  0  0  0  0
   -4.2280  -15.9591   20.6698 H   0  0  0  0  0  0  0  0  0  0  0  0
   -1.7511  -16.5694   18.8209 H   0  0  0  0  0  0  0  0  0  0  0  0
    0.7002  -17.8742   17.9440 H   0  0  0  0  0  0  0  0  0  0  0  0
    2.0362  -17.1242   17.0833 H   0  0  0  0  0  0  0  0  0  0  0  0
    1.7770  -18.3685   18.3901 H   0  0  0  0  0  0  0  0  0  0  0  0
    2.1011  -14.5707   18.0780 H   0  0  0  0  0  0  0  0  0  0  0  0
    3.2846  -15.4698   18.3955 H   0  0  0  0  0  0  0  0  0  0  0  0
    4.3965  -12.6084   17.9857 H   0  0  0  0  0  0  0  0  0  0  0  0
    4.3358  -10.5121   19.3631 H   0  0  0  0  0  0  0  0  0  0  0  0
    2.8806  -10.7980   21.4325 H   0  0  0  0  0  0  0  0  0  0  0  0
   -2.2556  -19.4058   19.7334 H   0  0  0  0  0  0  0  0  0  0  0  0
  1  2  1  0
  2  3  1  0
  3  4  2  0
  4  5  1  0
  5  6  2  0
  6  7  1  0
  7  8  2  0
  8  9  1  0
  9 10  1  0
 10 11  2  0
 10 12  1  0
 12 13  1  0
 12 14  1  0
 14 15  1  0
 15 16  2  0
 16 17  1  0
 17 18  1  0
 18 19  2  0
  8 20  1  0
 20 21  2  0
 21 22  1  0
 22  3  1  0
 21  5  1  0
 19 15  1  0
  1 23  1  0
  1 24  1  0
  1 25  1  0
  2 26  1  0
  2 27  1  0
  6 28  1  0
  7 29  1  0
  9 30  1  0
 13 31  1  0
 13 32  1  0
 13 33  1  0
 14 34  1  0
 14 35  1  0
 16 36  1  0
 17 37  1  0
 18 38  1  0
 20 39  1  0
M  END
>  <Energy>  (1369) 
308.90365975560275

>  <compound_id>  (1369) 
59660

>  <target_id>  (1369) 
1

>  <reference_id>  (1369) 
80

>  <inspiration_ids>  (1369) 
[68, 80]

>  <energy_score>  (1369) 
282.1105592412409

>  <distance_score>  (1369) 
17.182914099762815

>  <path>  (1369) 
/opt/xchem-fragalysis-2/maxwin/BulkDock/SCRATCH/511021/C59660-P80/C59660-P80.minimised.mol

>  <scratch_subdir>  (1369) 
/opt/xchem-fragalysis-2/maxwin/BulkDock/SCRATCH/511021/C59660-P80

>  <fragmenstein_runtime>  (1369) 
9.101234912872314

>  <fragmenstein_outcome>  (1369) 
too moved

>  <fragmenstein_mode>  (1369) 
expansion

>  <fragmenstein_error>  (1369) 


$$$$
C59661-P68
     RDKit          3D

 37 39  0  0  0  0  0  0  0  0999 V2000
   -6.7430  -30.6015   15.1274 C   0  0  0  0  0  0  0  0  0  0  0  0
   -8.1863  -29.5959   14.7301 S   0  0  0  0  0  0  0  0  0  0  0  0
   -7.5911  -27.9467   14.8939 C   0  0  0  0  0  0  0  0  0  0  0  0
   -8.3781  -26.9576   14.5222 N   0  0  0  0  0  0  0  0  0  0  0  0
   -7.6368  -25.7887   14.3727 C   0  0  0  0  0  0  0  0  0  0  0  0
   -8.0497  -24.5543   13.7985 C   0  0  0  0  0  0  0  0  0  0  0  0
   -7.1405  -23.4673   13.5445 C   0  0  0  0  0  0  0  0  0  0  0  0
   -5.8134  -23.5464   13.9227 C   0  0  0  0  0  0  0  0  0  0  0  0
   -4.7380  -22.5511   13.7619 N   0  0  0  0  0  0  0  0  0  0  0  0
   -3.4386  -22.4824   14.3350 C   0  0  0  0  0  0  0  0  0  0  0  0
   -3.0119  -23.1584   15.1001 O   0  0  0  0  0  0  0  0  0  0  0  0
   -2.5408  -21.4926   13.7510 N   0  0  0  0  0  0  0  0  0  0  0  0
   -0.5190  -20.8664   14.1073 C   0  0  0  0  0  0  0  0  0  0  0  0
   -2.0334  -19.8130   14.1268 C   0  0  0  0  0  0  0  0  0  0  0  0
   -0.4397  -19.2558   12.6795 C   0  0  0  0  0  0  0  0  0  0  0  0
    0.6375  -19.8412   11.7451 C   0  0  0  0  0  0  0  0  0  0  0  0
    1.5246  -18.9282   11.1985 N   0  0  0  0  0  0  0  0  0  0  0  0
    0.9100  -17.7576   11.2471 C   0  0  0  0  0  0  0  0  0  0  0  0
   -0.1129  -17.9131   12.0368 N   0  0  0  0  0  0  0  0  0  0  0  0
   -5.4307  -24.7795   14.5677 C   0  0  0  0  0  0  0  0  0  0  0  0
   -6.3094  -25.8800   14.7624 C   0  0  0  0  0  0  0  0  0  0  0  0
   -6.0177  -27.4676   15.3878 S   0  0  0  0  0  0  0  0  0  0  0  0
   -6.3873  -30.4114   16.1432 H   0  0  0  0  0  0  0  0  0  0  0  0
   -7.0213  -31.6574   15.0630 H   0  0  0  0  0  0  0  0  0  0  0  0
   -5.9346  -30.4217   14.4133 H   0  0  0  0  0  0  0  0  0  0  0  0
   -9.0850  -24.4603   13.4786 H   0  0  0  0  0  0  0  0  0  0  0  0
   -7.5209  -22.5734   13.0580 H   0  0  0  0  0  0  0  0  0  0  0  0
   -4.8078  -21.8497   13.0305 H   0  0  0  0  0  0  0  0  0  0  0  0
    0.4601  -20.4086   13.6586 H   0  0  0  0  0  0  0  0  0  0  0  0
    0.5380  -21.2607   14.6011 H   0  0  0  0  0  0  0  0  0  0  0  0
   -0.4100  -19.7130   14.1764 H   0  0  0  0  0  0  0  0  0  0  0  0
   -3.0347  -20.0072   13.1988 H   0  0  0  0  0  0  0  0  0  0  0  0
   -1.8934  -18.9898   14.9115 H   0  0  0  0  0  0  0  0  0  0  0  0
    0.8606  -20.8431   11.4088 H   0  0  0  0  0  0  0  0  0  0  0  0
    2.3337  -19.1545   10.6412 H   0  0  0  0  0  0  0  0  0  0  0  0
    1.2299  -16.8448   10.7679 H   0  0  0  0  0  0  0  0  0  0  0  0
   -4.3949  -24.9413   14.8534 H   0  0  0  0  0  0  0  0  0  0  0  0
  1  2  1  0
  2  3  1  0
  3  4  2  0
  4  5  1  0
  5  6  2  0
  6  7  1  0
  7  8  2  0
  8  9  1  0
  9 10  1  0
 10 11  2  0
 10 12  1  0
 12 13  1  0
 12 14  1  0
 14 15  1  0
 15 16  2  0
 16 17  1  0
 17 18  1  0
 18 19  2  0
  8 20  1  0
 20 21  2  0
 21 22  1  0
 22  3  1  0
 21  5  1  0
 19 15  1  0
  1 23  1  0
  1 24  1  0
  1 25  1  0
  6 26  1  0
  7 27  1  0
  9 28  1  0
 13 29  1  0
 13 30  1  0
 13 31  1  0
 14 32  1  0
 14 33  1  0
 16 34  1  0
 17 35  1  0
 18 36  1  0
 20 37  1  0
M  END
>  <Energy>  (1370) 
846.51564658323548

>  <compound_id>  (1370) 
59661

>  <target_id>  (1370) 
1

>  <reference_id>  (1370) 
68

>  <inspiration_ids>  (1370) 
[68, 80]

>  <energy_score>  (1370) 
827.533429173825

>  <distance_score>  (1370) 
17.10973762584244

>  <path>  (1370) 
/opt/xchem-fragalysis-2/maxwin/BulkDock/SCRATCH/511021/C59661-P68/C59661-P68.minimised.mol

>  <scratch_subdir>  (1370) 
/opt/xchem-fragalysis-2/maxwin/BulkDock/SCRATCH/511021/C59661-P68

>  <fragmenstein_runtime>  (1370) 
21.282928466796875

>  <fragmenstein_outcome>  (1370) 
too moved

>  <fragmenstein_mode>  (1370) 
expansion

>  <fragmenstein_error>  (1370) 


$$$$
C59661-P80
     RDKit          3D

 37 39  0  0  0  0  0  0  0  0999 V2000
   -4.4515  -29.6220   23.7546 C   0  0  0  0  0  0  0  0  0  0  0  0
   -2.7426  -29.9198   24.2612 S   0  0  0  0  0  0  0  0  0  0  0  0
   -2.1294  -28.2841   24.3725 C   0  0  0  0  0  0  0  0  0  0  0  0
   -2.8935  -27.2258   24.2331 N   0  0  0  0  0  0  0  0  0  0  0  0
   -2.1357  -26.0693   24.4076 C   0  0  0  0  0  0  0  0  0  0  0  0
   -2.5940  -24.7368   24.3426 C   0  0  0  0  0  0  0  0  0  0  0  0
   -1.7098  -23.6425   24.5819 C   0  0  0  0  0  0  0  0  0  0  0  0
   -0.3525  -23.8112   24.8964 C   0  0  0  0  0  0  0  0  0  0  0  0
    0.4889  -22.6979   25.3086 N   0  0  0  0  0  0  0  0  0  0  0  0
    0.1739  -21.2146   25.4468 C   0  0  0  0  0  0  0  0  0  0  0  0
   -0.8076  -20.6162   25.1727 O   0  0  0  0  0  0  0  0  0  0  0  0
    1.4521  -20.7140   26.1478 N   0  0  0  0  0  0  0  0  0  0  0  0
    1.7527  -19.4245   26.7522 C   0  0  0  0  0  0  0  0  0  0  0  0
    2.5378  -20.1795   25.0401 C   0  0  0  0  0  0  0  0  0  0  0  0
    3.5586  -18.8722   25.0255 C   0  0  0  0  0  0  0  0  0  0  0  0
    4.9197  -18.8466   24.7347 C   0  0  0  0  0  0  0  0  0  0  0  0
    5.3299  -17.5359   24.8245 N   0  0  0  0  0  0  0  0  0  0  0  0
    4.2277  -16.7773   25.0760 C   0  0  0  0  0  0  0  0  0  0  0  0
    3.1627  -17.5376   25.2243 N   0  0  0  0  0  0  0  0  0  0  0  0
    0.1080  -25.1501   24.9366 C   0  0  0  0  0  0  0  0  0  0  0  0
   -0.7815  -26.2564   24.6918 C   0  0  0  0  0  0  0  0  0  0  0  0
   -0.4752  -27.9632   24.7001 S   0  0  0  0  0  0  0  0  0  0  0  0
   -4.9545  -30.5816   23.6088 H   0  0  0  0  0  0  0  0  0  0  0  0
   -4.9899  -29.0624   24.5245 H   0  0  0  0  0  0  0  0  0  0  0  0
   -4.4848  -29.0696   22.8114 H   0  0  0  0  0  0  0  0  0  0  0  0
   -3.6432  -24.5476   24.1322 H   0  0  0  0  0  0  0  0  0  0  0  0
   -2.1370  -22.6405   24.5623 H   0  0  0  0  0  0  0  0  0  0  0  0
    1.3952  -22.8865   25.7163 H   0  0  0  0  0  0  0  0  0  0  0  0
    1.3227  -18.5773   26.2052 H   0  0  0  0  0  0  0  0  0  0  0  0
    2.7536  -19.3447   27.1943 H   0  0  0  0  0  0  0  0  0  0  0  0
    1.1139  -19.4280   27.6495 H   0  0  0  0  0  0  0  0  0  0  0  0
    2.0206  -20.2252   24.0836 H   0  0  0  0  0  0  0  0  0  0  0  0
    3.2381  -21.0288   25.0295 H   0  0  0  0  0  0  0  0  0  0  0  0
    5.6180  -19.6369   24.4982 H   0  0  0  0  0  0  0  0  0  0  0  0
    6.2764  -17.1958   24.7204 H   0  0  0  0  0  0  0  0  0  0  0  0
    4.2577  -15.6988   25.1578 H   0  0  0  0  0  0  0  0  0  0  0  0
    1.1437  -25.3614   25.1905 H   0  0  0  0  0  0  0  0  0  0  0  0
  1  2  1  0
  2  3  1  0
  3  4  2  0
  4  5  1  0
  5  6  2  0
  6  7  1  0
  7  8  2  0
  8  9  1  0
  9 10  1  0
 10 11  2  0
 10 12  1  0
 12 13  1  0
 12 14  1  0
 14 15  1  0
 15 16  2  0
 16 17  1  0
 17 18  1  0
 18 19  2  0
  8 20  1  0
 20 21  2  0
 21 22  1  0
 22  3  1  0
 21  5  1  0
 19 15  1  0
  1 23  1  0
  1 24  1  0
  1 25  1  0
  6 26  1  0
  7 27  1  0
  9 28  1  0
 13 29  1  0
 13 30  1  0
 13 31  1  0
 14 32  1  0
 14 33  1  0
 16 34  1  0
 17 35  1  0
 18 36  1  0
 20 37  1  0
M  END
>  <Energy>  (1371) 
62.204997496277905

>  <compound_id>  (1371) 
59661

>  <target_id>  (1371) 
1

>  <reference_id>  (1371) 
80

>  <inspiration_ids>  (1371) 
[68, 80]

>  <energy_score>  (1371) 
43.22278008688329

>  <distance_score>  (1371) 
16.402223513687925

>  <path>  (1371) 
/opt/xchem-fragalysis-2/maxwin/BulkDock/SCRATCH/511021/C59661-P80/C59661-P80.minimised.mol

>  <scratch_subdir>  (1371) 
/opt/xchem-fragalysis-2/maxwin/BulkDock/SCRATCH/511021/C59661-P80

>  <fragmenstein_runtime>  (1371) 
19.850176095962524

>  <fragmenstein_outcome>  (1371) 
too moved

>  <fragmenstein_mode>  (1371) 
expansion

>  <fragmenstein_error>  (1371) 


$$$$
C32788-P68
     RDKit          3D

 40 43  0  0  0  0  0  0  0  0999 V2000
   -7.4003  -19.1359   18.8362 C   0  0  0  0  0  0  0  0  0  0  0  0
   -6.8357  -20.5070   18.6878 N   0  0  0  0  0  0  0  0  0  0  0  0
   -5.5134  -19.7147   18.5711 C   0  0  0  0  0  0  0  0  0  0  0  0
   -5.2112  -18.6087   17.5455 C   0  0  0  0  0  0  0  0  0  0  0  0
   -4.9796  -17.3446   17.8464 N   0  0  0  0  0  0  0  0  0  0  0  0
   -4.4056  -16.8073   16.7383 C   0  0  0  0  0  0  0  0  0  0  0  0
   -4.4374  -17.6765   15.6835 C   0  0  0  0  0  0  0  0  0  0  0  0
   -4.9691  -18.8188   16.2081 N   0  0  0  0  0  0  0  0  0  0  0  0
   -6.6861  -21.6071   19.6926 C   0  0  0  0  0  0  0  0  0  0  0  0
   -6.8988  -21.6103   20.8502 O   0  0  0  0  0  0  0  0  0  0  0  0
   -6.2894  -22.7087   18.7908 N   0  0  0  0  0  0  0  0  0  0  0  0
   -5.9639  -24.0536   19.0658 C   0  0  0  0  0  0  0  0  0  0  0  0
   -5.7198  -24.5399   20.3552 C   0  0  0  0  0  0  0  0  0  0  0  0
   -5.2889  -25.8700   20.5742 C   0  0  0  0  0  0  0  0  0  0  0  0
   -5.1499  -26.7502   19.4817 C   0  0  0  0  0  0  0  0  0  0  0  0
   -4.7175  -28.0673   19.5139 N   0  0  0  0  0  0  0  0  0  0  0  0
   -4.7132  -28.5469   18.2895 C   0  0  0  0  0  0  0  0  0  0  0  0
   -4.1062  -29.9415   17.9901 C   0  0  0  0  0  0  0  0  0  0  0  0
   -3.2863  -30.1846   16.7470 C   0  0  0  0  0  0  0  0  0  0  0  0
   -4.6461  -30.8091   16.8828 C   0  0  0  0  0  0  0  0  0  0  0  0
   -5.3127  -27.5268   17.0655 S   0  0  0  0  0  0  0  0  0  0  0  0
   -5.4825  -26.2693   18.2151 C   0  0  0  0  0  0  0  0  0  0  0  0
   -5.8746  -24.9370   17.9867 C   0  0  0  0  0  0  0  0  0  0  0  0
   -7.0350  -18.5333   19.6821 H   0  0  0  0  0  0  0  0  0  0  0  0
   -7.5366  -18.6072   17.8852 H   0  0  0  0  0  0  0  0  0  0  0  0
   -8.4369  -19.3400   19.1461 H   0  0  0  0  0  0  0  0  0  0  0  0
   -4.7775  -20.5007   18.3430 H   0  0  0  0  0  0  0  0  0  0  0  0
   -5.2024  -19.3970   19.5808 H   0  0  0  0  0  0  0  0  0  0  0  0
   -3.9689  -15.8294   16.7744 H   0  0  0  0  0  0  0  0  0  0  0  0
   -4.0979  -17.6023   14.6629 H   0  0  0  0  0  0  0  0  0  0  0  0
   -5.0947  -19.6957   15.7234 H   0  0  0  0  0  0  0  0  0  0  0  0
   -6.2734  -22.3695   17.8408 H   0  0  0  0  0  0  0  0  0  0  0  0
   -5.8098  -23.8780   21.2148 H   0  0  0  0  0  0  0  0  0  0  0  0
   -5.0560  -26.2153   21.5766 H   0  0  0  0  0  0  0  0  0  0  0  0
   -3.7329  -30.3941   18.8944 H   0  0  0  0  0  0  0  0  0  0  0  0
   -3.1591  -29.3867   16.0259 H   0  0  0  0  0  0  0  0  0  0  0  0
   -2.4173  -30.8269   16.8407 H   0  0  0  0  0  0  0  0  0  0  0  0
   -5.4517  -30.4313   16.2637 H   0  0  0  0  0  0  0  0  0  0  0  0
   -4.6948  -31.8767   17.0396 H   0  0  0  0  0  0  0  0  0  0  0  0
   -6.1006  -24.6096   16.9767 H   0  0  0  0  0  0  0  0  0  0  0  0
  1  2  1  0
  2  3  1  0
  3  4  1  0
  4  5  2  0
  5  6  1  0
  6  7  2  0
  7  8  1  0
  2  9  1  0
  9 10  2  0
  9 11  1  0
 11 12  1  0
 12 13  2  0
 13 14  1  0
 14 15  2  0
 15 16  1  0
 16 17  2  0
 17 18  1  0
 18 19  1  0
 19 20  1  0
 17 21  1  0
 21 22  1  0
 22 23  2  0
  8  4  1  0
 23 12  1  0
 22 15  1  0
 20 18  1  0
  1 24  1  0
  1 25  1  0
  1 26  1  0
  3 27  1  0
  3 28  1  0
  6 29  1  0
  7 30  1  0
  8 31  1  0
 11 32  1  0
 13 33  1  0
 14 34  1  0
 18 35  1  0
 19 36  1  0
 19 37  1  0
 20 38  1  0
 20 39  1  0
 23 40  1  0
M  END
>  <Energy>  (1372) 
55.769395110772038

>  <compound_id>  (1372) 
32788

>  <target_id>  (1372) 
1

>  <reference_id>  (1372) 
68

>  <inspiration_ids>  (1372) 
[68, 80]

>  <energy_score>  (1372) 
-5.747304330905763

>  <distance_score>  (1372) 
16.52608667487177

>  <path>  (1372) 
/opt/xchem-fragalysis-2/maxwin/BulkDock/SCRATCH/511021/C32788-P68/C32788-P68.minimised.mol

>  <scratch_subdir>  (1372) 
/opt/xchem-fragalysis-2/maxwin/BulkDock/SCRATCH/511021/C32788-P68

>  <fragmenstein_runtime>  (1372) 
30.207435131072998

>  <fragmenstein_outcome>  (1372) 
too moved

>  <fragmenstein_mode>  (1372) 
expansion

>  <fragmenstein_error>  (1372) 


$$$$
C32788-P80
     RDKit          3D

 40 43  0  0  0  0  0  0  0  0999 V2000
   -0.6122  -15.7827   23.0215 C   0  0  0  0  0  0  0  0  0  0  0  0
   -0.7291  -17.2159   22.7623 N   0  0  0  0  0  0  0  0  0  0  0  0
   -0.3174  -16.7405   21.2776 C   0  0  0  0  0  0  0  0  0  0  0  0
    0.9385  -15.9385   20.4147 C   0  0  0  0  0  0  0  0  0  0  0  0
    0.9961  -15.9864   19.1102 N   0  0  0  0  0  0  0  0  0  0  0  0
    2.2620  -15.1695   18.2047 C   0  0  0  0  0  0  0  0  0  0  0  0
    2.8383  -14.4178   19.0288 C   0  0  0  0  0  0  0  0  0  0  0  0
    2.2226  -14.7886   20.3489 N   0  0  0  0  0  0  0  0  0  0  0  0
   -2.0046  -18.1460   22.7064 C   0  0  0  0  0  0  0  0  0  0  0  0
   -3.1327  -17.8173   22.7797 O   0  0  0  0  0  0  0  0  0  0  0  0
   -1.3952  -19.5326   22.6419 N   0  0  0  0  0  0  0  0  0  0  0  0
   -2.0235  -20.8600   22.7250 C   0  0  0  0  0  0  0  0  0  0  0  0
   -3.4119  -20.9995   22.9057 C   0  0  0  0  0  0  0  0  0  0  0  0
   -4.0755  -22.2614   22.9982 C   0  0  0  0  0  0  0  0  0  0  0  0
   -3.3568  -23.4678   22.8890 C   0  0  0  0  0  0  0  0  0  0  0  0
   -3.8776  -24.7596   22.9530 N   0  0  0  0  0  0  0  0  0  0  0  0
   -2.9085  -25.6282   22.7931 C   0  0  0  0  0  0  0  0  0  0  0  0
   -3.1791  -27.1674   22.7984 C   0  0  0  0  0  0  0  0  0  0  0  0
   -4.2125  -27.7283   23.7425 C   0  0  0  0  0  0  0  0  0  0  0  0
   -2.7552  -27.9853   23.9920 C   0  0  0  0  0  0  0  0  0  0  0  0
   -1.3427  -24.9767   22.5595 S   0  0  0  0  0  0  0  0  0  0  0  0
   -1.9761  -23.3610   22.6927 C   0  0  0  0  0  0  0  0  0  0  0  0
   -1.3052  -22.0789   22.6237 C   0  0  0  0  0  0  0  0  0  0  0  0
   -1.4019  -15.1834   22.5475 H   0  0  0  0  0  0  0  0  0  0  0  0
   -0.9074  -15.7133   24.0801 H   0  0  0  0  0  0  0  0  0  0  0  0
    0.3722  -15.3356   23.0376 H   0  0  0  0  0  0  0  0  0  0  0  0
   -1.2563  -16.4680   20.7603 H   0  0  0  0  0  0  0  0  0  0  0  0
   -0.1307  -17.7257   20.8876 H   0  0  0  0  0  0  0  0  0  0  0  0
    2.5123  -15.4020   17.1755 H   0  0  0  0  0  0  0  0  0  0  0  0
    3.7075  -13.7602   18.9105 H   0  0  0  0  0  0  0  0  0  0  0  0
    2.5577  -14.2647   21.1470 H   0  0  0  0  0  0  0  0  0  0  0  0
   -0.3881  -19.4559   22.6689 H   0  0  0  0  0  0  0  0  0  0  0  0
   -4.0339  -20.1088   22.9905 H   0  0  0  0  0  0  0  0  0  0  0  0
   -5.1514  -22.2943   23.1455 H   0  0  0  0  0  0  0  0  0  0  0  0
   -3.1117  -27.6299   21.8197 H   0  0  0  0  0  0  0  0  0  0  0  0
   -4.7341  -27.0430   24.4015 H   0  0  0  0  0  0  0  0  0  0  0  0
   -4.8252  -28.5511   23.3908 H   0  0  0  0  0  0  0  0  0  0  0  0
   -2.2940  -27.4821   24.8337 H   0  0  0  0  0  0  0  0  0  0  0  0
   -2.3811  -28.9864   23.8116 H   0  0  0  0  0  0  0  0  0  0  0  0
   -0.2290  -22.0657   22.4716 H   0  0  0  0  0  0  0  0  0  0  0  0
  1  2  1  0
  2  3  1  0
  3  4  1  0
  4  5  2  0
  5  6  1  0
  6  7  2  0
  7  8  1  0
  2  9  1  0
  9 10  2  0
  9 11  1  0
 11 12  1  0
 12 13  2  0
 13 14  1  0
 14 15  2  0
 15 16  1  0
 16 17  2  0
 17 18  1  0
 18 19  1  0
 19 20  1  0
 17 21  1  0
 21 22  1  0
 22 23  2  0
  8  4  1  0
 23 12  1  0
 22 15  1  0
 20 18  1  0
  1 24  1  0
  1 25  1  0
  1 26  1  0
  3 27  1  0
  3 28  1  0
  6 29  1  0
  7 30  1  0
  8 31  1  0
 11 32  1  0
 13 33  1  0
 14 34  1  0
 18 35  1  0
 19 36  1  0
 19 37  1  0
 20 38  1  0
 20 39  1  0
 23 40  1  0
M  END
>  <Energy>  (1373) 
219.94396652897916

>  <compound_id>  (1373) 
32788

>  <target_id>  (1373) 
1

>  <reference_id>  (1373) 
80

>  <inspiration_ids>  (1373) 
[68, 80]

>  <energy_score>  (1373) 
158.42726708730152

>  <distance_score>  (1373) 
15.851748044351112

>  <path>  (1373) 
/opt/xchem-fragalysis-2/maxwin/BulkDock/SCRATCH/511021/C32788-P80/C32788-P80.minimised.mol

>  <scratch_subdir>  (1373) 
/opt/xchem-fragalysis-2/maxwin/BulkDock/SCRATCH/511021/C32788-P80

>  <fragmenstein_runtime>  (1373) 
15.668066501617432

>  <fragmenstein_outcome>  (1373) 
too moved

>  <fragmenstein_mode>  (1373) 
expansion

>  <fragmenstein_error>  (1373) 


$$$$
C32789-P68
     RDKit          3D

 29 31  0  0  0  0  0  0  0  0999 V2000
   -4.6054  -32.4949   25.6092 C   0  0  0  0  0  0  0  0  0  0  0  0
   -5.0467  -31.1639   25.0391 C   0  0  0  0  0  0  0  0  0  0  0  0
   -4.3377  -30.1244   25.3651 C   0  0  0  0  0  0  0  0  0  0  0  0
   -4.8801  -29.4152   24.4163 C   0  0  0  0  0  0  0  0  0  0  0  0
   -6.0923  -30.1930   23.3294 C   0  0  0  0  0  0  0  0  0  0  0  0
   -5.8998  -28.4490   22.4903 N   0  0  0  0  0  0  0  0  0  0  0  0
   -5.4956  -28.2485   20.9985 C   0  0  0  0  0  0  0  0  0  0  0  0
   -4.7461  -27.1941   20.4109 N   0  0  0  0  0  0  0  0  0  0  0  0
   -4.3688  -25.9358   21.1569 C   0  0  0  0  0  0  0  0  0  0  0  0
   -3.2143  -24.8805   20.6906 C   0  0  0  0  0  0  0  0  0  0  0  0
   -3.0644  -23.6278   21.1381 N   0  0  0  0  0  0  0  0  0  0  0  0
   -1.8141  -23.1938   20.7460 C   0  0  0  0  0  0  0  0  0  0  0  0
   -1.2300  -24.1198   19.9254 C   0  0  0  0  0  0  0  0  0  0  0  0
   -2.1175  -25.1765   19.8945 N   0  0  0  0  0  0  0  0  0  0  0  0
   -5.6024  -30.1594   19.7653 S   0  0  0  0  0  0  0  0  0  0  0  0
   -6.0329  -31.6289   21.6273 C   0  0  0  0  0  0  0  0  0  0  0  0
   -6.1957  -30.8936   23.6588 C   0  0  0  0  0  0  0  0  0  0  0  0
   -3.6803  -32.8303   25.1269 H   0  0  0  0  0  0  0  0  0  0  0  0
   -4.4006  -32.3943   26.6809 H   0  0  0  0  0  0  0  0  0  0  0  0
   -5.3572  -33.2662   25.4954 H   0  0  0  0  0  0  0  0  0  0  0  0
   -3.5808  -29.9222   26.0823 H   0  0  0  0  0  0  0  0  0  0  0  0
   -4.7154  -28.3548   24.2556 H   0  0  0  0  0  0  0  0  0  0  0  0
   -4.8519  -27.0760   19.4100 H   0  0  0  0  0  0  0  0  0  0  0  0
   -5.2799  -25.3310   21.2491 H   0  0  0  0  0  0  0  0  0  0  0  0
   -4.0674  -26.2277   22.1715 H   0  0  0  0  0  0  0  0  0  0  0  0
   -1.4017  -22.2592   21.0964 H   0  0  0  0  0  0  0  0  0  0  0  0
   -0.2716  -24.1603   19.4254 H   0  0  0  0  0  0  0  0  0  0  0  0
   -1.9522  -26.0737   19.4596 H   0  0  0  0  0  0  0  0  0  0  0  0
   -7.2713  -31.2655   24.2455 H   0  0  0  0  0  0  0  0  0  0  0  0
  1  2  1  0
  2  3  2  0
  3  4  1  0
  4  5  2  0
  5  6  1  0
  6  7  2  0
  7  8  1  0
  8  9  1  0
  9 10  1  0
 10 11  2  0
 11 12  1  0
 12 13  2  0
 13 14  1  0
  7 15  1  0
 15 16  1  0
 16 17  2  0
 17  2  1  0
 16  5  1  0
 14 10  1  0
  1 18  1  0
  1 19  1  0
  1 20  1  0
  3 21  1  0
  4 22  1  0
  8 23  1  0
  9 24  1  0
  9 25  1  0
 12 26  1  0
 13 27  1  0
 14 28  1  0
 17 29  1  0
M  END
>  <Energy>  (1374) 
1311.8336706898806

>  <compound_id>  (1374) 
32789

>  <target_id>  (1374) 
1

>  <reference_id>  (1374) 
68

>  <inspiration_ids>  (1374) 
[68, 80]

>  <energy_score>  (1374) 
1264.457904898164

>  <distance_score>  (1374) 
16.388035052895983

>  <path>  (1374) 
/opt/xchem-fragalysis-2/maxwin/BulkDock/SCRATCH/511021/C32789-P68/C32789-P68.minimised.mol

>  <scratch_subdir>  (1374) 
/opt/xchem-fragalysis-2/maxwin/BulkDock/SCRATCH/511021/C32789-P68

>  <fragmenstein_runtime>  (1374) 
7.422461748123169

>  <fragmenstein_outcome>  (1374) 
too moved

>  <fragmenstein_mode>  (1374) 
expansion

>  <fragmenstein_error>  (1374) 


$$$$
C32789-P80
     RDKit          3D

 29 31  0  0  0  0  0  0  0  0999 V2000
    0.5677  -26.0942   17.5007 C   0  0  0  0  0  0  0  0  0  0  0  0
    1.4808  -24.9392   17.1462 C   0  0  0  0  0  0  0  0  0  0  0  0
    2.8743  -25.0401   17.0978 C   0  0  0  0  0  0  0  0  0  0  0  0
    3.7189  -23.8838   16.8812 C   0  0  0  0  0  0  0  0  0  0  0  0
    3.1590  -22.5715   16.7415 C   0  0  0  0  0  0  0  0  0  0  0  0
    3.6654  -21.1726   16.8679 N   0  0  0  0  0  0  0  0  0  0  0  0
    2.7337  -20.2224   16.5625 C   0  0  0  0  0  0  0  0  0  0  0  0
    2.7975  -18.7756   16.3061 N   0  0  0  0  0  0  0  0  0  0  0  0
    2.1254  -17.4107   17.2231 C   0  0  0  0  0  0  0  0  0  0  0  0
    2.7671  -15.6063   17.8278 C   0  0  0  0  0  0  0  0  0  0  0  0
    4.0251  -15.1091   18.0502 N   0  0  0  0  0  0  0  0  0  0  0  0
    3.9572  -13.7056   18.3978 C   0  0  0  0  0  0  0  0  0  0  0  0
    2.6630  -13.3238   18.5292 C   0  0  0  0  0  0  0  0  0  0  0  0
    1.9726  -14.5003   18.3978 N   0  0  0  0  0  0  0  0  0  0  0  0
    1.6985  -21.1302   15.5851 S   0  0  0  0  0  0  0  0  0  0  0  0
    1.8103  -22.5913   16.5011 C   0  0  0  0  0  0  0  0  0  0  0  0
    0.9464  -23.7062   16.7688 C   0  0  0  0  0  0  0  0  0  0  0  0
    0.2372  -26.5991   16.5883 H   0  0  0  0  0  0  0  0  0  0  0  0
   -0.3061  -25.7361   18.0542 H   0  0  0  0  0  0  0  0  0  0  0  0
    1.0927  -26.8140   18.1367 H   0  0  0  0  0  0  0  0  0  0  0  0
    3.3589  -25.9917   17.3052 H   0  0  0  0  0  0  0  0  0  0  0  0
    4.7949  -23.9858   16.9521 H   0  0  0  0  0  0  0  0  0  0  0  0
    2.4086  -18.6070   15.3631 H   0  0  0  0  0  0  0  0  0  0  0  0
    1.7437  -17.0142   16.3449 H   0  0  0  0  0  0  0  0  0  0  0  0
    1.3989  -17.8459   17.9128 H   0  0  0  0  0  0  0  0  0  0  0  0
    4.8594  -13.1349   18.5721 H   0  0  0  0  0  0  0  0  0  0  0  0
    2.1956  -12.4029   18.8426 H   0  0  0  0  0  0  0  0  0  0  0  0
    1.0379  -14.5922   18.7531 H   0  0  0  0  0  0  0  0  0  0  0  0
   -0.1251  -23.6050   16.6676 H   0  0  0  0  0  0  0  0  0  0  0  0
  1  2  1  0
  2  3  2  0
  3  4  1  0
  4  5  2  0
  5  6  1  0
  6  7  2  0
  7  8  1  0
  8  9  1  0
  9 10  1  0
 10 11  2  0
 11 12  1  0
 12 13  2  0
 13 14  1  0
  7 15  1  0
 15 16  1  0
 16 17  2  0
 17  2  1  0
 16  5  1  0
 14 10  1  0
  1 18  1  0
  1 19  1  0
  1 20  1  0
  3 21  1  0
  4 22  1  0
  8 23  1  0
  9 24  1  0
  9 25  1  0
 12 26  1  0
 13 27  1  0
 14 28  1  0
 17 29  1  0
M  END
>  <Energy>  (1375) 
185.22878701484919

>  <compound_id>  (1375) 
32789

>  <target_id>  (1375) 
1

>  <reference_id>  (1375) 
80

>  <inspiration_ids>  (1375) 
[68, 80]

>  <energy_score>  (1375) 
137.85302122313294

>  <distance_score>  (1375) 
17.16716680737794

>  <path>  (1375) 
/opt/xchem-fragalysis-2/maxwin/BulkDock/SCRATCH/511021/C32789-P80/C32789-P80.minimised.mol

>  <scratch_subdir>  (1375) 
/opt/xchem-fragalysis-2/maxwin/BulkDock/SCRATCH/511021/C32789-P80

>  <fragmenstein_runtime>  (1375) 
4.547902822494507

>  <fragmenstein_outcome>  (1375) 
too moved

>  <fragmenstein_mode>  (1375) 
expansion

>  <fragmenstein_error>  (1375) 


$$$$
C59662-P68
     RDKit          3D

 35 37  0  0  0  0  0  0  0  0999 V2000
    0.2803  -26.8330   20.7820 C   0  0  0  0  0  0  0  0  0  0  0  0
    1.2410  -26.0850   19.8924 C   0  0  0  0  0  0  0  0  0  0  0  0
    2.5547  -26.4975   19.6510 C   0  0  0  0  0  0  0  0  0  0  0  0
    3.3543  -25.8505   18.6405 C   0  0  0  0  0  0  0  0  0  0  0  0
    2.9217  -24.6331   18.0078 C   0  0  0  0  0  0  0  0  0  0  0  0
    3.6680  -23.6928   17.2107 N   0  0  0  0  0  0  0  0  0  0  0  0
    2.9984  -22.5553   17.0700 C   0  0  0  0  0  0  0  0  0  0  0  0
    3.2876  -21.2821   16.5414 N   0  0  0  0  0  0  0  0  0  0  0  0
    4.5637  -20.6819   16.1075 C   0  0  0  0  0  0  0  0  0  0  0  0
    5.6676  -21.1589   16.0221 O   0  0  0  0  0  0  0  0  0  0  0  0
    4.3952  -19.0602   15.7543 C   0  0  0  0  0  0  0  0  0  0  0  0
    3.5819  -18.9308   14.5847 O   0  0  0  0  0  0  0  0  0  0  0  0
    5.7600  -18.2371   15.5447 C   0  0  0  0  0  0  0  0  0  0  0  0
    5.7940  -16.6975   15.6361 C   0  0  0  0  0  0  0  0  0  0  0  0
    5.1882  -15.7347   14.8474 C   0  0  0  0  0  0  0  0  0  0  0  0
    5.7034  -14.5217   15.2394 N   0  0  0  0  0  0  0  0  0  0  0  0
    6.5999  -14.7635   16.2381 C   0  0  0  0  0  0  0  0  0  0  0  0
    6.6794  -16.0521   16.5012 N   0  0  0  0  0  0  0  0  0  0  0  0
    1.3875  -22.6370   17.6915 S   0  0  0  0  0  0  0  0  0  0  0  0
    1.6437  -24.2053   18.3441 C   0  0  0  0  0  0  0  0  0  0  0  0
    0.7962  -24.9682   19.1751 C   0  0  0  0  0  0  0  0  0  0  0  0
   -0.6825  -26.3259   20.8654 H   0  0  0  0  0  0  0  0  0  0  0  0
    0.6974  -26.9214   21.7888 H   0  0  0  0  0  0  0  0  0  0  0  0
    0.1013  -27.8211   20.3607 H   0  0  0  0  0  0  0  0  0  0  0  0
    2.9879  -27.3475   20.1691 H   0  0  0  0  0  0  0  0  0  0  0  0
    4.3625  -26.1977   18.4432 H   0  0  0  0  0  0  0  0  0  0  0  0
    2.5732  -20.5627   16.5664 H   0  0  0  0  0  0  0  0  0  0  0  0
    3.8315  -18.6079   16.5749 H   0  0  0  0  0  0  0  0  0  0  0  0
    4.0265  -19.4236   13.8718 H   0  0  0  0  0  0  0  0  0  0  0  0
    6.5027  -18.6153   16.2558 H   0  0  0  0  0  0  0  0  0  0  0  0
    6.1420  -18.4909   14.5464 H   0  0  0  0  0  0  0  0  0  0  0  0
    4.4751  -15.8141   14.0384 H   0  0  0  0  0  0  0  0  0  0  0  0
    5.4711  -13.6173   14.8522 H   0  0  0  0  0  0  0  0  0  0  0  0
    7.1585  -13.9776   16.7285 H   0  0  0  0  0  0  0  0  0  0  0  0
   -0.2278  -24.6771   19.2169 H   0  0  0  0  0  0  0  0  0  0  0  0
  1  2  1  0
  2  3  2  0
  3  4  1  0
  4  5  2  0
  5  6  1  0
  6  7  2  0
  7  8  1  0
  8  9  1  0
  9 10  2  0
  9 11  1  0
 11 12  1  0
 11 13  1  0
 13 14  1  0
 14 15  2  0
 15 16  1  0
 16 17  1  0
 17 18  2  0
  7 19  1  0
 19 20  1  0
 20 21  2  0
 21  2  1  0
 20  5  1  0
 18 14  1  0
  1 22  1  0
  1 23  1  0
  1 24  1  0
  3 25  1  0
  4 26  1  0
  8 27  1  0
 11 28  1  0
 12 29  1  0
 13 30  1  0
 13 31  1  0
 15 32  1  0
 16 33  1  0
 17 34  1  0
 21 35  1  0
M  END
>  <Energy>  (1376) 
45.276537380411497

>  <compound_id>  (1376) 
59662

>  <target_id>  (1376) 
1

>  <reference_id>  (1376) 
68

>  <inspiration_ids>  (1376) 
[68, 80]

>  <energy_score>  (1376) 
-35.50120624372363

>  <distance_score>  (1376) 
15.834774661540724

>  <path>  (1376) 
/opt/xchem-fragalysis-2/maxwin/BulkDock/SCRATCH/511021/C59662-P68/C59662-P68.minimised.mol

>  <scratch_subdir>  (1376) 
/opt/xchem-fragalysis-2/maxwin/BulkDock/SCRATCH/511021/C59662-P68

>  <fragmenstein_runtime>  (1376) 
22.544286727905273

>  <fragmenstein_outcome>  (1376) 
too moved

>  <fragmenstein_mode>  (1376) 
expansion

>  <fragmenstein_error>  (1376) 


$$$$
C59662-P80
     RDKit          3D

 35 37  0  0  0  0  0  0  0  0999 V2000
   -2.5159  -31.0547   19.0052 C   0  0  0  0  0  0  0  0  0  0  0  0
   -1.8908  -29.8582   18.3243 C   0  0  0  0  0  0  0  0  0  0  0  0
   -2.6415  -29.1456   17.3928 C   0  0  0  0  0  0  0  0  0  0  0  0
   -2.1447  -27.9493   16.8448 C   0  0  0  0  0  0  0  0  0  0  0  0
   -0.8933  -27.4065   17.2423 C   0  0  0  0  0  0  0  0  0  0  0  0
   -0.3336  -26.1685   16.8442 N   0  0  0  0  0  0  0  0  0  0  0  0
    0.8970  -25.9977   17.2880 C   0  0  0  0  0  0  0  0  0  0  0  0
    1.8893  -24.9217   16.9869 N   0  0  0  0  0  0  0  0  0  0  0  0
    1.9779  -23.8713   16.6914 C   0  0  0  0  0  0  0  0  0  0  0  0
    0.4427  -23.3759   16.7104 O   0  0  0  0  0  0  0  0  0  0  0  0
    3.0597  -22.7539   16.1465 C   0  0  0  0  0  0  0  0  0  0  0  0
    4.2690  -23.0249   16.8840 O   0  0  0  0  0  0  0  0  0  0  0  0
    2.7898  -21.1702   16.2320 C   0  0  0  0  0  0  0  0  0  0  0  0
    3.5465  -20.1065   15.3602 C   0  0  0  0  0  0  0  0  0  0  0  0
    2.9829  -18.9518   14.8214 C   0  0  0  0  0  0  0  0  0  0  0  0
    3.9921  -18.2363   14.2341 N   0  0  0  0  0  0  0  0  0  0  0  0
    5.1373  -18.9565   14.4012 C   0  0  0  0  0  0  0  0  0  0  0  0
    4.9232  -20.0404   15.1305 N   0  0  0  0  0  0  0  0  0  0  0  0
    1.4258  -27.3385   18.2736 S   0  0  0  0  0  0  0  0  0  0  0  0
   -0.1128  -28.1627   18.1110 C   0  0  0  0  0  0  0  0  0  0  0  0
   -0.5987  -29.3848   18.6680 C   0  0  0  0  0  0  0  0  0  0  0  0
   -3.3377  -30.7372   19.6539 H   0  0  0  0  0  0  0  0  0  0  0  0
   -2.8964  -31.7573   18.2567 H   0  0  0  0  0  0  0  0  0  0  0  0
   -1.7781  -31.5849   19.6160 H   0  0  0  0  0  0  0  0  0  0  0  0
   -3.6315  -29.4901   17.1046 H   0  0  0  0  0  0  0  0  0  0  0  0
   -2.7407  -27.3883   16.1304 H   0  0  0  0  0  0  0  0  0  0  0  0
    2.2329  -25.8616   17.1473 H   0  0  0  0  0  0  0  0  0  0  0  0
    3.2503  -23.0160   15.0997 H   0  0  0  0  0  0  0  0  0  0  0  0
    3.9968  -22.7674   17.7923 H   0  0  0  0  0  0  0  0  0  0  0  0
    2.9100  -20.8588   17.2760 H   0  0  0  0  0  0  0  0  0  0  0  0
    1.7320  -21.0397   15.9862 H   0  0  0  0  0  0  0  0  0  0  0  0
    1.9581  -18.6014   14.8255 H   0  0  0  0  0  0  0  0  0  0  0  0
    3.8929  -17.3657   13.7305 H   0  0  0  0  0  0  0  0  0  0  0  0
    6.0899  -18.6444   13.9943 H   0  0  0  0  0  0  0  0  0  0  0  0
    0.0093  -29.9233   19.3895 H   0  0  0  0  0  0  0  0  0  0  0  0
  1  2  1  0
  2  3  2  0
  3  4  1  0
  4  5  2  0
  5  6  1  0
  6  7  2  0
  7  8  1  0
  8  9  1  0
  9 10  2  0
  9 11  1  0
 11 12  1  0
 11 13  1  0
 13 14  1  0
 14 15  2  0
 15 16  1  0
 16 17  1  0
 17 18  2  0
  7 19  1  0
 19 20  1  0
 20 21  2  0
 21  2  1  0
 20  5  1  0
 18 14  1  0
  1 22  1  0
  1 23  1  0
  1 24  1  0
  3 25  1  0
  4 26  1  0
  8 27  1  0
 11 28  1  0
 12 29  1  0
 13 30  1  0
 13 31  1  0
 15 32  1  0
 16 33  1  0
 17 34  1  0
 21 35  1  0
M  END
>  <Energy>  (1377) 
254.28540309451009

>  <compound_id>  (1377) 
59662

>  <target_id>  (1377) 
1

>  <reference_id>  (1377) 
80

>  <inspiration_ids>  (1377) 
[68, 80]

>  <energy_score>  (1377) 
173.50765947037308

>  <distance_score>  (1377) 
14.972848628417019

>  <path>  (1377) 
/opt/xchem-fragalysis-2/maxwin/BulkDock/SCRATCH/511021/C59662-P80/C59662-P80.minimised.mol

>  <scratch_subdir>  (1377) 
/opt/xchem-fragalysis-2/maxwin/BulkDock/SCRATCH/511021/C59662-P80

>  <fragmenstein_runtime>  (1377) 
7.584755182266235

>  <fragmenstein_outcome>  (1377) 
too moved

>  <fragmenstein_mode>  (1377) 
expansion

>  <fragmenstein_error>  (1377) 


$$$$
C59663-P68
     RDKit          3D

 30 32  0  0  0  0  0  0  0  0999 V2000
   -5.1109  -31.3427   14.8456 C   0  0  0  0  0  0  0  0  0  0  0  0
   -4.8887  -29.8991   15.2113 C   0  0  0  0  0  0  0  0  0  0  0  0
   -5.6740  -29.3849   16.2404 C   0  0  0  0  0  0  0  0  0  0  0  0
   -5.5118  -28.0610   16.6154 C   0  0  0  0  0  0  0  0  0  0  0  0
   -4.5020  -27.2766   16.0050 C   0  0  0  0  0  0  0  0  0  0  0  0
   -4.0897  -26.0150   16.3936 N   0  0  0  0  0  0  0  0  0  0  0  0
   -2.7175  -25.4672   16.3113 C   0  0  0  0  0  0  0  0  0  0  0  0
   -1.2559  -24.6269   18.0335 S   0  0  0  0  0  0  0  0  0  0  0  0
   -0.6888  -25.4291   19.1459 O   0  0  0  0  0  0  0  0  0  0  0  0
   -1.9497  -23.4605   18.3501 O   0  0  0  0  0  0  0  0  0  0  0  0
    0.6196  -23.8761   17.7766 C   0  0  0  0  0  0  0  0  0  0  0  0
    0.9705  -22.4558   17.9297 C   0  0  0  0  0  0  0  0  0  0  0  0
    1.7704  -21.6341   17.1524 C   0  0  0  0  0  0  0  0  0  0  0  0
    2.1020  -20.5991   17.9759 N   0  0  0  0  0  0  0  0  0  0  0  0
    1.6612  -20.9490   19.2158 C   0  0  0  0  0  0  0  0  0  0  0  0
    0.8502  -21.9558   19.1859 N   0  0  0  0  0  0  0  0  0  0  0  0
   -2.9942  -26.2166   14.2865 S   0  0  0  0  0  0  0  0  0  0  0  0
   -3.7970  -27.7206   14.9313 C   0  0  0  0  0  0  0  0  0  0  0  0
   -3.9792  -29.0555   14.4941 C   0  0  0  0  0  0  0  0  0  0  0  0
   -4.2850  -31.7160   14.2314 H   0  0  0  0  0  0  0  0  0  0  0  0
   -5.1599  -31.9679   15.7436 H   0  0  0  0  0  0  0  0  0  0  0  0
   -6.0408  -31.4482   14.2784 H   0  0  0  0  0  0  0  0  0  0  0  0
   -6.4121  -30.0046   16.7448 H   0  0  0  0  0  0  0  0  0  0  0  0
   -6.1193  -27.6529   17.4139 H   0  0  0  0  0  0  0  0  0  0  0  0
    1.0113  -24.2300   18.7546 H   0  0  0  0  0  0  0  0  0  0  0  0
    1.3442  -24.4648   17.2266 H   0  0  0  0  0  0  0  0  0  0  0  0
    2.1757  -21.7188   16.1563 H   0  0  0  0  0  0  0  0  0  0  0  0
    2.7422  -19.8570   17.7442 H   0  0  0  0  0  0  0  0  0  0  0  0
    1.9277  -20.5285   20.1688 H   0  0  0  0  0  0  0  0  0  0  0  0
   -3.4420  -29.4244   13.6252 H   0  0  0  0  0  0  0  0  0  0  0  0
  1  2  1  0
  2  3  2  0
  3  4  1  0
  4  5  2  0
  5  6  1  0
  6  7  2  0
  7  8  1  0
  8  9  2  0
  8 10  2  0
  8 11  1  0
 11 12  1  0
 12 13  2  0
 13 14  1  0
 14 15  1  0
 15 16  2  0
  7 17  1  0
 17 18  1  0
 18 19  2  0
 19  2  1  0
 18  5  1  0
 16 12  1  0
  1 20  1  0
  1 21  1  0
  1 22  1  0
  3 23  1  0
  4 24  1  0
 11 25  1  0
 11 26  1  0
 13 27  1  0
 14 28  1  0
 15 29  1  0
 19 30  1  0
M  END
>  <Energy>  (1378) 
453.09728069878122

>  <compound_id>  (1378) 
59663

>  <target_id>  (1378) 
1

>  <reference_id>  (1378) 
68

>  <inspiration_ids>  (1378) 
[68, 80]

>  <energy_score>  (1378) 
293.1157936914562

>  <distance_score>  (1378) 
16.595219209701757

>  <path>  (1378) 
/opt/xchem-fragalysis-2/maxwin/BulkDock/SCRATCH/511021/C59663-P68/C59663-P68.minimised.mol

>  <scratch_subdir>  (1378) 
/opt/xchem-fragalysis-2/maxwin/BulkDock/SCRATCH/511021/C59663-P68

>  <fragmenstein_runtime>  (1378) 
7.9026994705200195

>  <fragmenstein_outcome>  (1378) 
too moved

>  <fragmenstein_mode>  (1378) 
expansion

>  <fragmenstein_error>  (1378) 


$$$$
C59663-P80
     RDKit          3D

 30 32  0  0  0  0  0  0  0  0999 V2000
   -2.5775  -29.5035   18.9737 C   0  0  0  0  0  0  0  0  0  0  0  0
   -1.5191  -28.4237   18.9020 C   0  0  0  0  0  0  0  0  0  0  0  0
   -1.0377  -27.8244   20.0652 C   0  0  0  0  0  0  0  0  0  0  0  0
   -0.1296  -26.7431   20.0015 C   0  0  0  0  0  0  0  0  0  0  0  0
    0.3411  -26.2268   18.7623 C   0  0  0  0  0  0  0  0  0  0  0  0
    1.2175  -25.1170   18.5479 N   0  0  0  0  0  0  0  0  0  0  0  0
    1.4634  -24.9168   17.2500 C   0  0  0  0  0  0  0  0  0  0  0  0
    2.8328  -23.7446   16.3283 S   0  0  0  0  0  0  0  0  0  0  0  0
    2.5448  -24.0244   14.9238 O   0  0  0  0  0  0  0  0  0  0  0  0
    4.1044  -24.2228   16.8617 O   0  0  0  0  0  0  0  0  0  0  0  0
    2.7059  -21.8790   16.5446 C   0  0  0  0  0  0  0  0  0  0  0  0
    3.6205  -20.9412   15.6871 C   0  0  0  0  0  0  0  0  0  0  0  0
    4.8976  -21.0798   15.1685 C   0  0  0  0  0  0  0  0  0  0  0  0
    5.1806  -19.9204   14.4755 N   0  0  0  0  0  0  0  0  0  0  0  0
    4.1167  -19.0822   14.6205 C   0  0  0  0  0  0  0  0  0  0  0  0
    3.1943  -19.6388   15.3747 N   0  0  0  0  0  0  0  0  0  0  0  0
    0.7461  -26.1713   16.2555 S   0  0  0  0  0  0  0  0  0  0  0  0
   -0.0888  -26.8840   17.6108 C   0  0  0  0  0  0  0  0  0  0  0  0
   -1.0242  -27.9657   17.6601 C   0  0  0  0  0  0  0  0  0  0  0  0
   -2.2619  -30.3734   18.3891 H   0  0  0  0  0  0  0  0  0  0  0  0
   -2.7413  -29.8332   20.0046 H   0  0  0  0  0  0  0  0  0  0  0  0
   -3.5235  -29.1247   18.5754 H   0  0  0  0  0  0  0  0  0  0  0  0
   -1.3819  -28.1554   21.0435 H   0  0  0  0  0  0  0  0  0  0  0  0
    0.2134  -26.2720   20.9170 H   0  0  0  0  0  0  0  0  0  0  0  0
    2.8551  -21.6055   17.5832 H   0  0  0  0  0  0  0  0  0  0  0  0
    1.6790  -21.6551   16.2515 H   0  0  0  0  0  0  0  0  0  0  0  0
    5.5949  -21.9065   15.1925 H   0  0  0  0  0  0  0  0  0  0  0  0
    6.0061  -19.7460   13.9187 H   0  0  0  0  0  0  0  0  0  0  0  0
    4.0614  -18.1015   14.1675 H   0  0  0  0  0  0  0  0  0  0  0  0
   -1.3498  -28.4298   16.7325 H   0  0  0  0  0  0  0  0  0  0  0  0
  1  2  1  0
  2  3  2  0
  3  4  1  0
  4  5  2  0
  5  6  1  0
  6  7  2  0
  7  8  1  0
  8  9  2  0
  8 10  2  0
  8 11  1  0
 11 12  1  0
 12 13  2  0
 13 14  1  0
 14 15  1  0
 15 16  2  0
  7 17  1  0
 17 18  1  0
 18 19  2  0
 19  2  1  0
 18  5  1  0
 16 12  1  0
  1 20  1  0
  1 21  1  0
  1 22  1  0
  3 23  1  0
  4 24  1  0
 11 25  1  0
 11 26  1  0
 13 27  1  0
 14 28  1  0
 15 29  1  0
 19 30  1  0
M  END
>  <Energy>  (1379) 
127.28277757698049

>  <compound_id>  (1379) 
59663

>  <target_id>  (1379) 
1

>  <reference_id>  (1379) 
80

>  <inspiration_ids>  (1379) 
[68, 80]

>  <energy_score>  (1379) 
-32.6987094303538

>  <distance_score>  (1379) 
15.976892791525529

>  <path>  (1379) 
/opt/xchem-fragalysis-2/maxwin/BulkDock/SCRATCH/511021/C59663-P80/C59663-P80.minimised.mol

>  <scratch_subdir>  (1379) 
/opt/xchem-fragalysis-2/maxwin/BulkDock/SCRATCH/511021/C59663-P80

>  <fragmenstein_runtime>  (1379) 
4.9119956493377686

>  <fragmenstein_outcome>  (1379) 
too moved

>  <fragmenstein_mode>  (1379) 
expansion

>  <fragmenstein_error>  (1379) 


$$$$
C32790-P68
     RDKit          3D

 29 31  0  0  0  0  0  0  0  0999 V2000
    4.6541  -19.8120   15.6433 C   0  0  0  0  0  0  0  0  0  0  0  0
    3.4950  -19.0957   15.5798 C   0  0  0  0  0  0  0  0  0  0  0  0
    2.5280  -19.9273   16.0993 N   0  0  0  0  0  0  0  0  0  0  0  0
    3.1294  -21.0881   16.5674 C   0  0  0  0  0  0  0  0  0  0  0  0
    2.4511  -22.1333   17.5373 C   0  0  0  0  0  0  0  0  0  0  0  0
    1.4730  -23.2326   17.0775 N   0  0  0  0  0  0  0  0  0  0  0  0
    1.2481  -24.2166   18.2165 C   0  0  0  0  0  0  0  0  0  0  0  0
    0.1494  -25.3578   18.2114 C   0  0  0  0  0  0  0  0  0  0  0  0
   -1.0572  -25.3066   17.5082 C   0  0  0  0  0  0  0  0  0  0  0  0
   -2.0699  -26.3011   17.6430 C   0  0  0  0  0  0  0  0  0  0  0  0
   -1.8799  -27.3865   18.5217 C   0  0  0  0  0  0  0  0  0  0  0  0
   -2.9051  -28.7360   18.8722 S   0  0  0  0  0  0  0  0  0  0  0  0
   -1.7337  -29.3316   19.9739 C   0  0  0  0  0  0  0  0  0  0  0  0
   -0.6519  -28.5959   20.1222 N   0  0  0  0  0  0  0  0  0  0  0  0
   -0.7094  -27.4900   19.2736 C   0  0  0  0  0  0  0  0  0  0  0  0
    0.2883  -26.4711   19.1071 C   0  0  0  0  0  0  0  0  0  0  0  0
    4.4317  -21.0219   16.2699 N   0  0  0  0  0  0  0  0  0  0  0  0
    5.6326  -19.5334   15.2800 H   0  0  0  0  0  0  0  0  0  0  0  0
    3.2407  -18.1349   15.1608 H   0  0  0  0  0  0  0  0  0  0  0  0
    1.5292  -19.7352   16.0684 H   0  0  0  0  0  0  0  0  0  0  0  0
    1.9423  -21.5498   18.3156 H   0  0  0  0  0  0  0  0  0  0  0  0
    3.2919  -22.6511   18.0157 H   0  0  0  0  0  0  0  0  0  0  0  0
    0.5978  -22.7637   16.8608 H   0  0  0  0  0  0  0  0  0  0  0  0
    1.0427  -23.6288   19.1195 H   0  0  0  0  0  0  0  0  0  0  0  0
    2.2062  -24.7308   18.3645 H   0  0  0  0  0  0  0  0  0  0  0  0
   -1.2402  -24.4770   16.8294 H   0  0  0  0  0  0  0  0  0  0  0  0
   -2.9867  -26.2182   17.0648 H   0  0  0  0  0  0  0  0  0  0  0  0
   -1.8816  -30.2567   20.5165 H   0  0  0  0  0  0  0  0  0  0  0  0
    1.1934  -26.5676   19.7042 H   0  0  0  0  0  0  0  0  0  0  0  0
  1  2  2  0
  2  3  1  0
  3  4  1  0
  4  5  1  0
  5  6  1  0
  6  7  1  0
  7  8  1  0
  8  9  2  0
  9 10  1  0
 10 11  2  0
 11 12  1  0
 12 13  1  0
 13 14  2  0
 14 15  1  0
 15 16  2  0
  4 17  2  0
 17  1  1  0
 16  8  1  0
 15 11  1  0
  1 18  1  0
  2 19  1  0
  3 20  1  0
  5 21  1  0
  5 22  1  0
  6 23  1  0
  7 24  1  0
  7 25  1  0
  9 26  1  0
 10 27  1  0
 13 28  1  0
 16 29  1  0
M  END
>  <Energy>  (1380) 
47.148191511152099

>  <compound_id>  (1380) 
32790

>  <target_id>  (1380) 
1

>  <reference_id>  (1380) 
68

>  <inspiration_ids>  (1380) 
[68, 80]

>  <energy_score>  (1380) 
-32.493954219676766

>  <distance_score>  (1380) 
16.01149302546614

>  <path>  (1380) 
/opt/xchem-fragalysis-2/maxwin/BulkDock/SCRATCH/511021/C32790-P68/C32790-P68.minimised.mol

>  <scratch_subdir>  (1380) 
/opt/xchem-fragalysis-2/maxwin/BulkDock/SCRATCH/511021/C32790-P68

>  <fragmenstein_runtime>  (1380) 
11.601449489593506

>  <fragmenstein_outcome>  (1380) 
too moved

>  <fragmenstein_mode>  (1380) 
expansion

>  <fragmenstein_error>  (1380) 


$$$$
C32790-P80
     RDKit          3D

 29 31  0  0  0  0  0  0  0  0999 V2000
   -3.7444  -18.2097   18.8233 C   0  0  0  0  0  0  0  0  0  0  0  0
   -4.7195  -17.5029   18.1775 C   0  0  0  0  0  0  0  0  0  0  0  0
   -5.8969  -17.9496   18.7333 N   0  0  0  0  0  0  0  0  0  0  0  0
   -5.6193  -19.0117   19.5794 C   0  0  0  0  0  0  0  0  0  0  0  0
   -6.7185  -19.8534   20.3534 C   0  0  0  0  0  0  0  0  0  0  0  0
   -6.2706  -21.2224   20.8355 N   0  0  0  0  0  0  0  0  0  0  0  0
   -7.3311  -22.0933   21.4385 C   0  0  0  0  0  0  0  0  0  0  0  0
   -7.0985  -23.6475   21.4446 C   0  0  0  0  0  0  0  0  0  0  0  0
   -6.8933  -24.3466   20.2470 C   0  0  0  0  0  0  0  0  0  0  0  0
   -6.7809  -25.7563   20.1864 C   0  0  0  0  0  0  0  0  0  0  0  0
   -6.8865  -26.5069   21.3683 C   0  0  0  0  0  0  0  0  0  0  0  0
   -6.7575  -28.2124   21.5998 S   0  0  0  0  0  0  0  0  0  0  0  0
   -7.0521  -28.0001   23.2708 C   0  0  0  0  0  0  0  0  0  0  0  0
   -7.2237  -26.7585   23.6801 N   0  0  0  0  0  0  0  0  0  0  0  0
   -7.1195  -25.8828   22.5951 C   0  0  0  0  0  0  0  0  0  0  0  0
   -7.2280  -24.4484   22.6172 C   0  0  0  0  0  0  0  0  0  0  0  0
   -4.3141  -19.2321   19.5362 N   0  0  0  0  0  0  0  0  0  0  0  0
   -2.6697  -18.1154   18.7980 H   0  0  0  0  0  0  0  0  0  0  0  0
   -4.6964  -16.7060   17.4482 H   0  0  0  0  0  0  0  0  0  0  0  0
   -6.8199  -17.5921   18.5322 H   0  0  0  0  0  0  0  0  0  0  0  0
   -7.5591  -19.9871   19.6625 H   0  0  0  0  0  0  0  0  0  0  0  0
   -7.0565  -19.2590   21.2094 H   0  0  0  0  0  0  0  0  0  0  0  0
   -5.5645  -21.0068   21.5581 H   0  0  0  0  0  0  0  0  0  0  0  0
   -8.2722  -21.9390   20.8958 H   0  0  0  0  0  0  0  0  0  0  0  0
   -7.4983  -21.7613   22.4700 H   0  0  0  0  0  0  0  0  0  0  0  0
   -6.8178  -23.7887   19.3134 H   0  0  0  0  0  0  0  0  0  0  0  0
   -6.6053  -26.2484   19.2343 H   0  0  0  0  0  0  0  0  0  0  0  0
   -7.0867  -28.8456   23.9466 H   0  0  0  0  0  0  0  0  0  0  0  0
   -7.4223  -23.9796   23.5778 H   0  0  0  0  0  0  0  0  0  0  0  0
  1  2  2  0
  2  3  1  0
  3  4  1  0
  4  5  1  0
  5  6  1  0
  6  7  1  0
  7  8  1  0
  8  9  2  0
  9 10  1  0
 10 11  2  0
 11 12  1  0
 12 13  1  0
 13 14  2  0
 14 15  1  0
 15 16  2  0
  4 17  2  0
 17  1  1  0
 16  8  1  0
 15 11  1  0
  1 18  1  0
  2 19  1  0
  3 20  1  0
  5 21  1  0
  5 22  1  0
  6 23  1  0
  7 24  1  0
  7 25  1  0
  9 26  1  0
 10 27  1  0
 13 28  1  0
 16 29  1  0
M  END
>  <Energy>  (1381) 
37.264675872942142

>  <compound_id>  (1381) 
32790

>  <target_id>  (1381) 
1

>  <reference_id>  (1381) 
80

>  <inspiration_ids>  (1381) 
[68, 80]

>  <energy_score>  (1381) 
-42.377469857884876

>  <distance_score>  (1381) 
16.87427345726724

>  <path>  (1381) 
/opt/xchem-fragalysis-2/maxwin/BulkDock/SCRATCH/511021/C32790-P80/C32790-P80.minimised.mol

>  <scratch_subdir>  (1381) 
/opt/xchem-fragalysis-2/maxwin/BulkDock/SCRATCH/511021/C32790-P80

>  <fragmenstein_runtime>  (1381) 
8.324390411376953

>  <fragmenstein_outcome>  (1381) 
too moved

>  <fragmenstein_mode>  (1381) 
expansion

>  <fragmenstein_error>  (1381) 


$$$$
C32791-P68
     RDKit          3D

 41 43  0  0  0  0  0  0  0  0999 V2000
    5.5454  -12.5035   20.2891 C   0  0  0  0  0  0  0  0  0  0  0  0
    4.3887  -13.3158   19.7527 C   0  0  0  0  0  0  0  0  0  0  0  0
    3.7241  -13.3460   18.2150 C   0  0  0  0  0  0  0  0  0  0  0  0
    3.6157  -15.0231   17.5039 N   0  0  0  0  0  0  0  0  0  0  0  0
    2.6822  -16.1356   17.7689 C   0  0  0  0  0  0  0  0  0  0  0  0
    1.7054  -16.1863   18.4667 O   0  0  0  0  0  0  0  0  0  0  0  0
    3.1661  -17.6258   16.8886 C   0  0  0  0  0  0  0  0  0  0  0  0
    2.4974  -19.2443   17.1151 C   0  0  0  0  0  0  0  0  0  0  0  0
    3.3114  -20.9663   16.7289 S   0  0  0  0  0  0  0  0  0  0  0  0
    2.5299  -22.5279   17.4786 C   0  0  0  0  0  0  0  0  0  0  0  0
    3.1994  -23.6753   17.3358 N   0  0  0  0  0  0  0  0  0  0  0  0
    2.6703  -24.7079   18.1454 C   0  0  0  0  0  0  0  0  0  0  0  0
    3.3477  -25.9037   18.5662 C   0  0  0  0  0  0  0  0  0  0  0  0
    2.8323  -26.7277   19.6035 C   0  0  0  0  0  0  0  0  0  0  0  0
    1.5670  -26.4748   20.1116 C   0  0  0  0  0  0  0  0  0  0  0  0
    0.8531  -25.3601   19.6454 C   0  0  0  0  0  0  0  0  0  0  0  0
    1.4438  -24.4196   18.7500 C   0  0  0  0  0  0  0  0  0  0  0  0
    1.0332  -22.7637   18.3165 S   0  0  0  0  0  0  0  0  0  0  0  0
    3.9085  -11.6393   17.1624 C   0  0  0  0  0  0  0  0  0  0  0  0
    3.1637  -11.0927   16.1728 N   0  0  0  0  0  0  0  0  0  0  0  0
    3.7874  -10.0247   15.5605 C   0  0  0  0  0  0  0  0  0  0  0  0
    4.9576   -9.7384   16.1768 C   0  0  0  0  0  0  0  0  0  0  0  0
    5.0270  -10.6629   17.1687 N   0  0  0  0  0  0  0  0  0  0  0  0
    6.0353  -11.9056   19.5446 H   0  0  0  0  0  0  0  0  0  0  0  0
    5.2255  -11.8613   21.0981 H   0  0  0  0  0  0  0  0  0  0  0  0
    6.3006  -13.1330   20.7547 H   0  0  0  0  0  0  0  0  0  0  0  0
    4.9920  -14.1823   19.7506 H   0  0  0  0  0  0  0  0  0  0  0  0
    3.6669  -13.5265   20.5359 H   0  0  0  0  0  0  0  0  0  0  0  0
    4.6577  -13.8296   18.0822 H   0  0  0  0  0  0  0  0  0  0  0  0
    4.3691  -15.3561   16.9336 H   0  0  0  0  0  0  0  0  0  0  0  0
    2.9548  -17.3856   15.8426 H   0  0  0  0  0  0  0  0  0  0  0  0
    4.2496  -17.6803   16.9092 H   0  0  0  0  0  0  0  0  0  0  0  0
    1.8035  -19.3193   16.2920 H   0  0  0  0  0  0  0  0  0  0  0  0
    1.9267  -19.3092   18.0399 H   0  0  0  0  0  0  0  0  0  0  0  0
    4.3256  -26.1047   18.1419 H   0  0  0  0  0  0  0  0  0  0  0  0
    3.4094  -27.5804   19.9484 H   0  0  0  0  0  0  0  0  0  0  0  0
    1.1275  -27.1278   20.8600 H   0  0  0  0  0  0  0  0  0  0  0  0
   -0.1181  -25.2091   20.0644 H   0  0  0  0  0  0  0  0  0  0  0  0
    3.3334   -9.5241   14.7170 H   0  0  0  0  0  0  0  0  0  0  0  0
    5.7044   -8.9814   16.0080 H   0  0  0  0  0  0  0  0  0  0  0  0
    5.6521  -10.6461   17.9538 H   0  0  0  0  0  0  0  0  0  0  0  0
  1  2  1  0
  2  3  1  0
  3  4  1  0
  4  5  1  0
  5  6  2  0
  5  7  1  0
  7  8  1  0
  8  9  1  0
  9 10  1  0
 10 11  2  0
 11 12  1  0
 12 13  2  0
 13 14  1  0
 14 15  2  0
 15 16  1  0
 16 17  2  0
 17 18  1  0
  3 19  1  0
 19 20  2  0
 20 21  1  0
 21 22  2  0
 22 23  1  0
 18 10  1  0
 23 19  1  0
 17 12  1  0
  1 24  1  0
  1 25  1  0
  1 26  1  0
  2 27  1  0
  2 28  1  0
  3 29  1  0
  4 30  1  0
  7 31  1  0
  7 32  1  0
  8 33  1  0
  8 34  1  0
 13 35  1  0
 14 36  1  0
 15 37  1  0
 16 38  1  0
 21 39  1  0
 22 40  1  0
 23 41  1  0
M  END
>  <Energy>  (1382) 
274.05247975752206

>  <compound_id>  (1382) 
32791

>  <target_id>  (1382) 
1

>  <reference_id>  (1382) 
68

>  <inspiration_ids>  (1382) 
[68, 80]

>  <energy_score>  (1382) 
198.18301100009205

>  <distance_score>  (1382) 
15.039007402729682

>  <path>  (1382) 
/opt/xchem-fragalysis-2/maxwin/BulkDock/SCRATCH/511021/C32791-P68/C32791-P68.minimised.mol

>  <scratch_subdir>  (1382) 
/opt/xchem-fragalysis-2/maxwin/BulkDock/SCRATCH/511021/C32791-P68

>  <fragmenstein_runtime>  (1382) 
26.625428199768066

>  <fragmenstein_outcome>  (1382) 
too moved

>  <fragmenstein_mode>  (1382) 
expansion

>  <fragmenstein_error>  (1382) 


$$$$
C32791-P80
     RDKit          3D

 41 43  0  0  0  0  0  0  0  0999 V2000
    5.1393  -24.2191   15.5643 C   0  0  0  0  0  0  0  0  0  0  0  0
    4.0816  -23.6079   14.6493 C   0  0  0  0  0  0  0  0  0  0  0  0
    3.1434  -22.5892   15.3509 C   0  0  0  0  0  0  0  0  0  0  0  0
    2.4430  -23.2835   16.4827 N   0  0  0  0  0  0  0  0  0  0  0  0
    1.5962  -24.4969   16.4967 C   0  0  0  0  0  0  0  0  0  0  0  0
    1.1944  -25.1819   15.5912 O   0  0  0  0  0  0  0  0  0  0  0  0
    1.1743  -24.9958   17.9316 C   0  0  0  0  0  0  0  0  0  0  0  0
    0.0925  -26.1681   17.9568 C   0  0  0  0  0  0  0  0  0  0  0  0
   -0.1065  -26.9677   19.6222 S   0  0  0  0  0  0  0  0  0  0  0  0
   -1.4776  -28.1413   19.6677 C   0  0  0  0  0  0  0  0  0  0  0  0
   -1.6338  -28.8975   20.7453 N   0  0  0  0  0  0  0  0  0  0  0  0
   -2.8241  -29.6318   20.6954 C   0  0  0  0  0  0  0  0  0  0  0  0
   -3.3426  -30.4859   21.7014 C   0  0  0  0  0  0  0  0  0  0  0  0
   -4.5808  -31.1212   21.5271 C   0  0  0  0  0  0  0  0  0  0  0  0
   -5.3029  -30.9310   20.3554 C   0  0  0  0  0  0  0  0  0  0  0  0
   -4.8024  -30.1114   19.3336 C   0  0  0  0  0  0  0  0  0  0  0  0
   -3.5630  -29.4620   19.5249 C   0  0  0  0  0  0  0  0  0  0  0  0
   -2.7024  -28.3641   18.4833 S   0  0  0  0  0  0  0  0  0  0  0  0
    3.8880  -21.1947   15.4679 C   0  0  0  0  0  0  0  0  0  0  0  0
    5.2139  -21.0084   15.4565 N   0  0  0  0  0  0  0  0  0  0  0  0
    5.4559  -19.8364   14.7760 C   0  0  0  0  0  0  0  0  0  0  0  0
    4.2807  -19.1756   14.5568 C   0  0  0  0  0  0  0  0  0  0  0  0
    3.2937  -19.9900   15.0823 N   0  0  0  0  0  0  0  0  0  0  0  0
    5.7855  -23.4593   16.0111 H   0  0  0  0  0  0  0  0  0  0  0  0
    4.6830  -24.7965   16.3742 H   0  0  0  0  0  0  0  0  0  0  0  0
    5.7751  -24.9020   14.9912 H   0  0  0  0  0  0  0  0  0  0  0  0
    4.5778  -23.1359   13.7920 H   0  0  0  0  0  0  0  0  0  0  0  0
    3.4800  -24.4281   14.2378 H   0  0  0  0  0  0  0  0  0  0  0  0
    2.3359  -22.4010   14.6309 H   0  0  0  0  0  0  0  0  0  0  0  0
    2.6564  -23.0114   17.4491 H   0  0  0  0  0  0  0  0  0  0  0  0
    2.0887  -25.3606   18.4121 H   0  0  0  0  0  0  0  0  0  0  0  0
    0.7747  -24.1481   18.4912 H   0  0  0  0  0  0  0  0  0  0  0  0
   -0.8729  -25.7605   17.6399 H   0  0  0  0  0  0  0  0  0  0  0  0
    0.3802  -26.9523   17.2494 H   0  0  0  0  0  0  0  0  0  0  0  0
   -2.7822  -30.6259   22.6207 H   0  0  0  0  0  0  0  0  0  0  0  0
   -4.9792  -31.7548   22.3169 H   0  0  0  0  0  0  0  0  0  0  0  0
   -6.2735  -31.4101   20.2356 H   0  0  0  0  0  0  0  0  0  0  0  0
   -5.3759  -29.9594   18.4248 H   0  0  0  0  0  0  0  0  0  0  0  0
    6.4603  -19.5354   14.5092 H   0  0  0  0  0  0  0  0  0  0  0  0
    4.0395  -18.2435   14.0708 H   0  0  0  0  0  0  0  0  0  0  0  0
    2.2960  -19.8209   14.9932 H   0  0  0  0  0  0  0  0  0  0  0  0
  1  2  1  0
  2  3  1  0
  3  4  1  0
  4  5  1  0
  5  6  2  0
  5  7  1  0
  7  8  1  0
  8  9  1  0
  9 10  1  0
 10 11  2  0
 11 12  1  0
 12 13  2  0
 13 14  1  0
 14 15  2  0
 15 16  1  0
 16 17  2  0
 17 18  1  0
  3 19  1  0
 19 20  2  0
 20 21  1  0
 21 22  2  0
 22 23  1  0
 18 10  1  0
 23 19  1  0
 17 12  1  0
  1 24  1  0
  1 25  1  0
  1 26  1  0
  2 27  1  0
  2 28  1  0
  3 29  1  0
  4 30  1  0
  7 31  1  0
  7 32  1  0
  8 33  1  0
  8 34  1  0
 13 35  1  0
 14 36  1  0
 15 37  1  0
 16 38  1  0
 21 39  1  0
 22 40  1  0
 23 41  1  0
M  END
>  <Energy>  (1383) 
25.804657436319566

>  <compound_id>  (1383) 
32791

>  <target_id>  (1383) 
1

>  <reference_id>  (1383) 
80

>  <inspiration_ids>  (1383) 
[68, 80]

>  <energy_score>  (1383) 
-50.06481132110696

>  <distance_score>  (1383) 
14.006197461857477

>  <path>  (1383) 
/opt/xchem-fragalysis-2/maxwin/BulkDock/SCRATCH/511021/C32791-P80/C32791-P80.minimised.mol

>  <scratch_subdir>  (1383) 
/opt/xchem-fragalysis-2/maxwin/BulkDock/SCRATCH/511021/C32791-P80

>  <fragmenstein_runtime>  (1383) 
27.672354459762573

>  <fragmenstein_outcome>  (1383) 
too moved

>  <fragmenstein_mode>  (1383) 
expansion

>  <fragmenstein_error>  (1383) 


$$$$
C32792-P68
     RDKit          3D

 38 40  0  0  0  0  0  0  0  0999 V2000
   -4.3201  -26.3564   22.8518 C   0  0  0  0  0  0  0  0  0  0  0  0
   -3.3035  -26.2575   21.8532 O   0  0  0  0  0  0  0  0  0  0  0  0
   -2.4906  -27.3402   21.7833 C   0  0  0  0  0  0  0  0  0  0  0  0
   -2.5715  -28.3498   22.4629 O   0  0  0  0  0  0  0  0  0  0  0  0
   -1.4639  -27.1462   20.7332 C   0  0  0  0  0  0  0  0  0  0  0  0
   -0.8858  -28.2699   20.1395 C   0  0  0  0  0  0  0  0  0  0  0  0
    0.1657  -28.1218   19.2192 C   0  0  0  0  0  0  0  0  0  0  0  0
    0.6359  -26.8192   18.9229 C   0  0  0  0  0  0  0  0  0  0  0  0
    1.9649  -26.2856   17.9313 S   0  0  0  0  0  0  0  0  0  0  0  0
    1.6081  -24.5939   18.2149 C   0  0  0  0  0  0  0  0  0  0  0  0
    2.2067  -23.4378   17.6657 N   0  0  0  0  0  0  0  0  0  0  0  0
    3.4350  -23.2211   16.7987 C   0  0  0  0  0  0  0  0  0  0  0  0
    3.2688  -23.8795   15.4131 C   0  0  0  0  0  0  0  0  0  0  0  0
    4.6619  -23.9004   17.4370 C   0  0  0  0  0  0  0  0  0  0  0  0
    3.8415  -21.6586   16.4651 C   0  0  0  0  0  0  0  0  0  0  0  0
    5.0569  -21.1946   16.1435 N   0  0  0  0  0  0  0  0  0  0  0  0
    4.8993  -19.8851   15.7266 C   0  0  0  0  0  0  0  0  0  0  0  0
    3.5887  -19.5102   15.8334 C   0  0  0  0  0  0  0  0  0  0  0  0
    2.9257  -20.6272   16.2971 N   0  0  0  0  0  0  0  0  0  0  0  0
    0.5867  -24.4732   19.0590 N   0  0  0  0  0  0  0  0  0  0  0  0
    0.0408  -25.6918   19.4748 C   0  0  0  0  0  0  0  0  0  0  0  0
   -1.0272  -25.8599   20.3879 C   0  0  0  0  0  0  0  0  0  0  0  0
   -4.8664  -25.4095   22.8732 H   0  0  0  0  0  0  0  0  0  0  0  0
   -3.8786  -26.5229   23.8395 H   0  0  0  0  0  0  0  0  0  0  0  0
   -5.0228  -27.1562   22.6007 H   0  0  0  0  0  0  0  0  0  0  0  0
   -1.2239  -29.2708   20.4077 H   0  0  0  0  0  0  0  0  0  0  0  0
    0.6388  -28.9937   18.7758 H   0  0  0  0  0  0  0  0  0  0  0  0
    2.2016  -22.7209   18.3950 H   0  0  0  0  0  0  0  0  0  0  0  0
    2.4638  -23.4238   14.8392 H   0  0  0  0  0  0  0  0  0  0  0  0
    3.0799  -24.9538   15.4822 H   0  0  0  0  0  0  0  0  0  0  0  0
    4.1780  -23.7595   14.8097 H   0  0  0  0  0  0  0  0  0  0  0  0
    5.5787  -23.7050   16.8686 H   0  0  0  0  0  0  0  0  0  0  0  0
    4.8299  -23.5529   18.4492 H   0  0  0  0  0  0  0  0  0  0  0  0
    4.5508  -24.9873   17.4904 H   0  0  0  0  0  0  0  0  0  0  0  0
    5.7341  -19.2980   15.3699 H   0  0  0  0  0  0  0  0  0  0  0  0
    3.0530  -18.6048   15.5808 H   0  0  0  0  0  0  0  0  0  0  0  0
    1.9184  -20.7119   16.3724 H   0  0  0  0  0  0  0  0  0  0  0  0
   -1.4602  -24.9721   20.8384 H   0  0  0  0  0  0  0  0  0  0  0  0
  1  2  1  0
  2  3  1  0
  3  4  2  0
  3  5  1  0
  5  6  2  0
  6  7  1  0
  7  8  2  0
  8  9  1  0
  9 10  1  0
 10 11  1  0
 11 12  1  0
 12 13  1  0
 12 14  1  0
 12 15  1  0
 15 16  2  0
 16 17  1  0
 17 18  2  0
 18 19  1  0
 10 20  2  0
 20 21  1  0
 21 22  2  0
 22  5  1  0
 21  8  1  0
 19 15  1  0
  1 23  1  0
  1 24  1  0
  1 25  1  0
  6 26  1  0
  7 27  1  0
 11 28  1  0
 13 29  1  0
 13 30  1  0
 13 31  1  0
 14 32  1  0
 14 33  1  0
 14 34  1  0
 17 35  1  0
 18 36  1  0
 19 37  1  0
 22 38  1  0
M  END
>  <Energy>  (1384) 
22.904026271231714

>  <compound_id>  (1384) 
32792

>  <target_id>  (1384) 
1

>  <reference_id>  (1384) 
68

>  <inspiration_ids>  (1384) 
[68, 80]

>  <energy_score>  (1384) 
-59.006432594199396

>  <distance_score>  (1384) 
16.26848417422288

>  <path>  (1384) 
/opt/xchem-fragalysis-2/maxwin/BulkDock/SCRATCH/511021/C32792-P68/C32792-P68.minimised.mol

>  <scratch_subdir>  (1384) 
/opt/xchem-fragalysis-2/maxwin/BulkDock/SCRATCH/511021/C32792-P68

>  <fragmenstein_runtime>  (1384) 
14.826550006866455

>  <fragmenstein_outcome>  (1384) 
too moved

>  <fragmenstein_mode>  (1384) 
expansion

>  <fragmenstein_error>  (1384) 


$$$$
C32792-P80
     RDKit          3D

 38 40  0  0  0  0  0  0  0  0999 V2000
   -1.1535  -27.3231   18.9689 C   0  0  0  0  0  0  0  0  0  0  0  0
   -0.3334  -26.2864   18.4302 O   0  0  0  0  0  0  0  0  0  0  0  0
    0.1446  -26.5341   17.1901 C   0  0  0  0  0  0  0  0  0  0  0  0
   -0.0566  -27.5403   16.5276 O   0  0  0  0  0  0  0  0  0  0  0  0
    0.9761  -25.3986   16.7131 C   0  0  0  0  0  0  0  0  0  0  0  0
    1.7405  -25.5800   15.5667 C   0  0  0  0  0  0  0  0  0  0  0  0
    2.5625  -24.5458   15.0804 C   0  0  0  0  0  0  0  0  0  0  0  0
    2.5854  -23.2984   15.7476 C   0  0  0  0  0  0  0  0  0  0  0  0
    3.4475  -21.8092   15.4029 S   0  0  0  0  0  0  0  0  0  0  0  0
    2.6844  -20.9289   16.7128 C   0  0  0  0  0  0  0  0  0  0  0  0
    2.7856  -19.5196   17.1164 N   0  0  0  0  0  0  0  0  0  0  0  0
    2.5726  -17.9925   16.1872 C   0  0  0  0  0  0  0  0  0  0  0  0
    1.4278  -18.8674   15.5810 C   0  0  0  0  0  0  0  0  0  0  0  0
    3.9112  -18.1388   15.1331 C   0  0  0  0  0  0  0  0  0  0  0  0
    2.5458  -16.0473   16.7960 C   0  0  0  0  0  0  0  0  0  0  0  0
    3.3577  -15.4050   17.7886 N   0  0  0  0  0  0  0  0  0  0  0  0
    2.8459  -14.2582   18.4578 C   0  0  0  0  0  0  0  0  0  0  0  0
    1.6165  -13.9353   18.0219 C   0  0  0  0  0  0  0  0  0  0  0  0
    1.6211  -14.6251   16.7869 N   0  0  0  0  0  0  0  0  0  0  0  0
    1.9621  -21.7949   17.3997 N   0  0  0  0  0  0  0  0  0  0  0  0
    1.8113  -23.0912   16.8700 C   0  0  0  0  0  0  0  0  0  0  0  0
    1.0074  -24.1632   17.3694 C   0  0  0  0  0  0  0  0  0  0  0  0
   -0.5837  -28.2530   19.0613 H   0  0  0  0  0  0  0  0  0  0  0  0
   -1.4788  -27.0150   19.9664 H   0  0  0  0  0  0  0  0  0  0  0  0
   -2.0403  -27.4723   18.3451 H   0  0  0  0  0  0  0  0  0  0  0  0
    1.7271  -26.5334   15.0406 H   0  0  0  0  0  0  0  0  0  0  0  0
    3.1647  -24.6953   14.1882 H   0  0  0  0  0  0  0  0  0  0  0  0
    2.2222  -19.4160   17.9618 H   0  0  0  0  0  0  0  0  0  0  0  0
    0.6748  -18.5179   14.8883 H   0  0  0  0  0  0  0  0  0  0  0  0
    0.8797  -19.3314   16.4102 H   0  0  0  0  0  0  0  0  0  0  0  0
    1.8551  -19.6427   14.9284 H   0  0  0  0  0  0  0  0  0  0  0  0
    4.6617  -17.3661   15.3212 H   0  0  0  0  0  0  0  0  0  0  0  0
    4.3843  -19.1154   15.2422 H   0  0  0  0  0  0  0  0  0  0  0  0
    3.6978  -18.1024   14.0602 H   0  0  0  0  0  0  0  0  0  0  0  0
    3.4362  -13.6273   19.1013 H   0  0  0  0  0  0  0  0  0  0  0  0
    0.9290  -13.1268   18.2126 H   0  0  0  0  0  0  0  0  0  0  0  0
    0.8568  -14.5133   16.1707 H   0  0  0  0  0  0  0  0  0  0  0  0
    0.4545  -24.0168   18.2879 H   0  0  0  0  0  0  0  0  0  0  0  0
  1  2  1  0
  2  3  1  0
  3  4  2  0
  3  5  1  0
  5  6  2  0
  6  7  1  0
  7  8  2  0
  8  9  1  0
  9 10  1  0
 10 11  1  0
 11 12  1  0
 12 13  1  0
 12 14  1  0
 12 15  1  0
 15 16  2  0
 16 17  1  0
 17 18  2  0
 18 19  1  0
 10 20  2  0
 20 21  1  0
 21 22  2  0
 22  5  1  0
 21  8  1  0
 19 15  1  0
  1 23  1  0
  1 24  1  0
  1 25  1  0
  6 26  1  0
  7 27  1  0
 11 28  1  0
 13 29  1  0
 13 30  1  0
 13 31  1  0
 14 32  1  0
 14 33  1  0
 14 34  1  0
 17 35  1  0
 18 36  1  0
 19 37  1  0
 22 38  1  0
M  END
>  <Energy>  (1385) 
277.69358764510946

>  <compound_id>  (1385) 
32792

>  <target_id>  (1385) 
1

>  <reference_id>  (1385) 
80

>  <inspiration_ids>  (1385) 
[68, 80]

>  <energy_score>  (1385) 
195.7831287796795

>  <distance_score>  (1385) 
17.424282957088316

>  <path>  (1385) 
/opt/xchem-fragalysis-2/maxwin/BulkDock/SCRATCH/511021/C32792-P80/C32792-P80.minimised.mol

>  <scratch_subdir>  (1385) 
/opt/xchem-fragalysis-2/maxwin/BulkDock/SCRATCH/511021/C32792-P80

>  <fragmenstein_runtime>  (1385) 
9.094599485397339

>  <fragmenstein_outcome>  (1385) 
too moved

>  <fragmenstein_mode>  (1385) 
expansion

>  <fragmenstein_error>  (1385) 


$$$$
C32786-P68
     RDKit          3D

 32 34  0  0  0  0  0  0  0  0999 V2000
    4.1058  -24.0046   17.3047 C   0  0  0  0  0  0  0  0  0  0  0  0
    2.9611  -23.3540   16.5032 C   0  0  0  0  0  0  0  0  0  0  0  0
    2.9840  -23.9480   15.0745 C   0  0  0  0  0  0  0  0  0  0  0  0
    1.6267  -23.6626   17.1739 N   0  0  0  0  0  0  0  0  0  0  0  0
    0.9616  -24.8772   17.4731 C   0  0  0  0  0  0  0  0  0  0  0  0
   -0.2358  -24.8836   18.0532 N   0  0  0  0  0  0  0  0  0  0  0  0
   -0.7557  -26.1722   18.3132 C   0  0  0  0  0  0  0  0  0  0  0  0
   -1.9958  -26.5120   18.9339 C   0  0  0  0  0  0  0  0  0  0  0  0
   -2.3755  -27.8486   19.1449 C   0  0  0  0  0  0  0  0  0  0  0  0
   -1.5330  -28.8668   18.7271 C   0  0  0  0  0  0  0  0  0  0  0  0
   -0.3202  -28.5543   18.0961 C   0  0  0  0  0  0  0  0  0  0  0  0
    0.4742  -29.5550   17.6878 F   0  0  0  0  0  0  0  0  0  0  0  0
    0.0633  -27.2102   17.8931 C   0  0  0  0  0  0  0  0  0  0  0  0
    1.4722  -26.5163   17.1477 S   0  0  0  0  0  0  0  0  0  0  0  0
    3.4216  -21.7732   16.2936 C   0  0  0  0  0  0  0  0  0  0  0  0
    4.6813  -21.3428   16.1292 N   0  0  0  0  0  0  0  0  0  0  0  0
    4.6220  -20.0124   15.7676 C   0  0  0  0  0  0  0  0  0  0  0  0
    3.3247  -19.5889   15.7504 C   0  0  0  0  0  0  0  0  0  0  0  0
    2.5713  -20.6981   16.0787 N   0  0  0  0  0  0  0  0  0  0  0  0
    5.0508  -23.9823   16.7481 H   0  0  0  0  0  0  0  0  0  0  0  0
    4.2829  -23.4536   18.2263 H   0  0  0  0  0  0  0  0  0  0  0  0
    3.9129  -25.0473   17.5638 H   0  0  0  0  0  0  0  0  0  0  0  0
    3.9818  -23.8585   14.6264 H   0  0  0  0  0  0  0  0  0  0  0  0
    2.7169  -25.0063   15.0499 H   0  0  0  0  0  0  0  0  0  0  0  0
    2.3045  -23.4143   14.4055 H   0  0  0  0  0  0  0  0  0  0  0  0
    1.3943  -22.9440   17.8544 H   0  0  0  0  0  0  0  0  0  0  0  0
   -2.6488  -25.7059   19.2556 H   0  0  0  0  0  0  0  0  0  0  0  0
   -3.3195  -28.0762   19.6310 H   0  0  0  0  0  0  0  0  0  0  0  0
   -1.7975  -29.9093   18.8821 H   0  0  0  0  0  0  0  0  0  0  0  0
    5.5117  -19.4469   15.5305 H   0  0  0  0  0  0  0  0  0  0  0  0
    2.8534  -18.6531   15.4838 H   0  0  0  0  0  0  0  0  0  0  0  0
    1.5574  -20.7277   16.0323 H   0  0  0  0  0  0  0  0  0  0  0  0
  1  2  1  0
  2  3  1  0
  2  4  1  0
  4  5  1  0
  5  6  2  0
  6  7  1  0
  7  8  2  0
  8  9  1  0
  9 10  2  0
 10 11  1  0
 11 12  1  0
 11 13  2  0
 13 14  1  0
  2 15  1  0
 15 16  2  0
 16 17  1  0
 17 18  2  0
 18 19  1  0
 14  5  1  0
 19 15  1  0
 13  7  1  0
  1 20  1  0
  1 21  1  0
  1 22  1  0
  3 23  1  0
  3 24  1  0
  3 25  1  0
  4 26  1  0
  8 27  1  0
  9 28  1  0
 10 29  1  0
 17 30  1  0
 18 31  1  0
 19 32  1  0
M  END
>  <Energy>  (1386) 
16.715850864343015

>  <compound_id>  (1386) 
32786

>  <target_id>  (1386) 
1

>  <reference_id>  (1386) 
68

>  <inspiration_ids>  (1386) 
[68, 80]

>  <energy_score>  (1386) 
-50.97774860102129

>  <distance_score>  (1386) 
16.44632691928019

>  <path>  (1386) 
/opt/xchem-fragalysis-2/maxwin/BulkDock/SCRATCH/511021/C32786-P68/C32786-P68.minimised.mol

>  <scratch_subdir>  (1386) 
/opt/xchem-fragalysis-2/maxwin/BulkDock/SCRATCH/511021/C32786-P68

>  <fragmenstein_runtime>  (1386) 
10.456705808639526

>  <fragmenstein_outcome>  (1386) 
too moved

>  <fragmenstein_mode>  (1386) 
expansion

>  <fragmenstein_error>  (1386) 


$$$$
C32786-P80
     RDKit          3D

 32 34  0  0  0  0  0  0  0  0999 V2000
    0.4653  -24.6504   18.2594 C   0  0  0  0  0  0  0  0  0  0  0  0
    1.3266  -25.2169   17.1233 C   0  0  0  0  0  0  0  0  0  0  0  0
    2.5142  -26.0355   17.6671 C   0  0  0  0  0  0  0  0  0  0  0  0
    0.4212  -26.1955   16.3944 N   0  0  0  0  0  0  0  0  0  0  0  0
   -0.4304  -27.1358   16.9997 C   0  0  0  0  0  0  0  0  0  0  0  0
   -0.4004  -27.6135   18.2371 N   0  0  0  0  0  0  0  0  0  0  0  0
   -1.4975  -28.4529   18.5331 C   0  0  0  0  0  0  0  0  0  0  0  0
   -1.8100  -29.0631   19.7807 C   0  0  0  0  0  0  0  0  0  0  0  0
   -2.9652  -29.8523   19.9356 C   0  0  0  0  0  0  0  0  0  0  0  0
   -3.8146  -30.0552   18.8561 C   0  0  0  0  0  0  0  0  0  0  0  0
   -3.5144  -29.4774   17.6188 C   0  0  0  0  0  0  0  0  0  0  0  0
   -4.3439  -29.6826   16.5847 F   0  0  0  0  0  0  0  0  0  0  0  0
   -2.3624  -28.6773   17.4671 C   0  0  0  0  0  0  0  0  0  0  0  0
   -1.7542  -27.8296   16.0865 S   0  0  0  0  0  0  0  0  0  0  0  0
    2.0046  -23.9421   16.2815 C   0  0  0  0  0  0  0  0  0  0  0  0
    2.4725  -23.9132   15.0341 N   0  0  0  0  0  0  0  0  0  0  0  0
    2.9947  -22.6413   14.8085 C   0  0  0  0  0  0  0  0  0  0  0  0
    2.8812  -21.8656   15.9282 C   0  0  0  0  0  0  0  0  0  0  0  0
    2.2751  -22.6886   16.8417 N   0  0  0  0  0  0  0  0  0  0  0  0
    0.1294  -25.4189   18.9597 H   0  0  0  0  0  0  0  0  0  0  0  0
    0.9786  -23.9337   18.8839 H   0  0  0  0  0  0  0  0  0  0  0  0
   -0.4243  -24.1664   17.8420 H   0  0  0  0  0  0  0  0  0  0  0  0
    3.2407  -25.4102   18.1902 H   0  0  0  0  0  0  0  0  0  0  0  0
    2.1900  -26.8163   18.3631 H   0  0  0  0  0  0  0  0  0  0  0  0
    3.0476  -26.5298   16.8462 H   0  0  0  0  0  0  0  0  0  0  0  0
    0.2110  -25.8965   15.4485 H   0  0  0  0  0  0  0  0  0  0  0  0
   -1.1456  -28.8952   20.6240 H   0  0  0  0  0  0  0  0  0  0  0  0
   -3.1924  -30.2984   20.9016 H   0  0  0  0  0  0  0  0  0  0  0  0
   -4.7129  -30.6573   18.9639 H   0  0  0  0  0  0  0  0  0  0  0  0
    3.4111  -22.3737   13.8465 H   0  0  0  0  0  0  0  0  0  0  0  0
    3.1500  -20.8454   16.1602 H   0  0  0  0  0  0  0  0  0  0  0  0
    2.1631  -22.4735   17.8252 H   0  0  0  0  0  0  0  0  0  0  0  0
  1  2  1  0
  2  3  1  0
  2  4  1  0
  4  5  1  0
  5  6  2  0
  6  7  1  0
  7  8  2  0
  8  9  1  0
  9 10  2  0
 10 11  1  0
 11 12  1  0
 11 13  2  0
 13 14  1  0
  2 15  1  0
 15 16  2  0
 16 17  1  0
 17 18  2  0
 18 19  1  0
 14  5  1  0
 19 15  1  0
 13  7  1  0
  1 20  1  0
  1 21  1  0
  1 22  1  0
  3 23  1  0
  3 24  1  0
  3 25  1  0
  4 26  1  0
  8 27  1  0
  9 28  1  0
 10 29  1  0
 17 30  1  0
 18 31  1  0
 19 32  1  0
M  END
>  <Energy>  (1387) 
11.611411287897116

>  <compound_id>  (1387) 
32786

>  <target_id>  (1387) 
1

>  <reference_id>  (1387) 
80

>  <inspiration_ids>  (1387) 
[68, 80]

>  <energy_score>  (1387) 
-56.082188177467174

>  <distance_score>  (1387) 
16.594071633717178

>  <path>  (1387) 
/opt/xchem-fragalysis-2/maxwin/BulkDock/SCRATCH/511021/C32786-P80/C32786-P80.minimised.mol

>  <scratch_subdir>  (1387) 
/opt/xchem-fragalysis-2/maxwin/BulkDock/SCRATCH/511021/C32786-P80

>  <fragmenstein_runtime>  (1387) 
8.993176221847534

>  <fragmenstein_outcome>  (1387) 
too moved

>  <fragmenstein_mode>  (1387) 
expansion

>  <fragmenstein_error>  (1387) 


$$$$
C62418-P28
     RDKit          3D

 48 50  0  0  0  0  0  0  0  0999 V2000
   -2.3127  -12.2235   18.3235 C   0  0  0  0  0  0  0  0  0  0  0  0
   -2.0571  -13.5306   17.4542 C   0  0  0  0  0  0  0  0  0  0  0  0
   -3.3153  -14.2549   17.3593 O   0  0  0  0  0  0  0  0  0  0  0  0
   -3.3108  -15.2785   18.3063 C   0  0  0  0  0  0  0  0  0  0  0  0
   -1.9699  -15.0451   18.9641 C   0  0  0  0  0  0  0  0  0  0  0  0
   -0.7045  -14.4398   17.7675 C   0  0  0  0  0  0  0  0  0  0  0  0
    1.2999  -14.4831   17.7271 C   0  0  0  0  0  0  0  0  0  0  0  0
    2.8428  -14.5982   18.7782 C   0  0  0  0  0  0  0  0  0  0  0  0
    4.0936  -13.4192   19.4981 N   0  0  0  0  0  0  0  0  0  0  0  0
    4.5891  -13.1953   21.0640 C   0  0  0  0  0  0  0  0  0  0  0  0
    4.1845  -13.7126   22.0903 O   0  0  0  0  0  0  0  0  0  0  0  0
    5.8372  -12.2843   21.3768 C   0  0  0  0  0  0  0  0  0  0  0  0
    6.5988  -11.7548   20.3786 C   0  0  0  0  0  0  0  0  0  0  0  0
    7.8215  -11.0161   20.5276 C   0  0  0  0  0  0  0  0  0  0  0  0
    8.3102  -10.6824   21.7646 C   0  0  0  0  0  0  0  0  0  0  0  0
    7.5037  -11.0560   22.8425 C   0  0  0  0  0  0  0  0  0  0  0  0
    6.3235  -11.8996   22.6485 C   0  0  0  0  0  0  0  0  0  0  0  0
    7.8493  -10.4934   24.2013 C   0  0  0  0  0  0  0  0  0  0  0  0
    7.9318   -8.9552   24.2300 C   0  0  0  0  0  0  0  0  0  0  0  0
    9.2358   -8.3650   23.6978 C   0  0  0  0  0  0  0  0  0  0  0  0
    9.4067   -8.5096   22.2597 N   0  0  0  0  0  0  0  0  0  0  0  0
    9.5919   -9.8967   21.8600 C   0  0  0  0  0  0  0  0  0  0  0  0
   -3.0495  -11.5213   17.9455 H   0  0  0  0  0  0  0  0  0  0  0  0
   -2.7083  -12.4466   19.3185 H   0  0  0  0  0  0  0  0  0  0  0  0
   -1.4193  -11.6198   18.4422 H   0  0  0  0  0  0  0  0  0  0  0  0
   -1.8509  -13.3877   16.4529 H   0  0  0  0  0  0  0  0  0  0  0  0
   -3.4418  -16.2555   17.8359 H   0  0  0  0  0  0  0  0  0  0  0  0
   -4.1407  -15.1370   19.0068 H   0  0  0  0  0  0  0  0  0  0  0  0
   -2.2528  -14.2647   19.6869 H   0  0  0  0  0  0  0  0  0  0  0  0
   -1.8052  -15.8409   19.6551 H   0  0  0  0  0  0  0  0  0  0  0  0
   -0.3624  -13.4074   17.6397 H   0  0  0  0  0  0  0  0  0  0  0  0
    1.5955  -14.2239   16.7218 H   0  0  0  0  0  0  0  0  0  0  0  0
    1.3436  -15.5924   17.8788 H   0  0  0  0  0  0  0  0  0  0  0  0
    2.4462  -15.1246   19.6529 H   0  0  0  0  0  0  0  0  0  0  0  0
    3.4898  -15.2356   18.1605 H   0  0  0  0  0  0  0  0  0  0  0  0
    4.5750  -12.7788   18.8993 H   0  0  0  0  0  0  0  0  0  0  0  0
    6.1399  -11.7680   19.4027 H   0  0  0  0  0  0  0  0  0  0  0  0
    8.2999  -10.5920   19.6443 H   0  0  0  0  0  0  0  0  0  0  0  0
    5.7605  -12.2169   23.5266 H   0  0  0  0  0  0  0  0  0  0  0  0
    8.7840  -10.9424   24.5582 H   0  0  0  0  0  0  0  0  0  0  0  0
    7.0715  -10.7996   24.9123 H   0  0  0  0  0  0  0  0  0  0  0  0
    7.8459   -8.6446   25.2797 H   0  0  0  0  0  0  0  0  0  0  0  0
    7.0731   -8.5115   23.7113 H   0  0  0  0  0  0  0  0  0  0  0  0
   10.0957   -8.7817   24.2365 H   0  0  0  0  0  0  0  0  0  0  0  0
    9.2292   -7.2912   23.9208 H   0  0  0  0  0  0  0  0  0  0  0  0
   10.2056   -7.9602   21.9524 H   0  0  0  0  0  0  0  0  0  0  0  0
   10.0670   -9.9002   20.8737 H   0  0  0  0  0  0  0  0  0  0  0  0
   10.3021  -10.4188   22.5142 H   0  0  0  0  0  0  0  0  0  0  0  0
  1  2  1  0
  2  3  1  0
  3  4  1  0
  4  5  1  0
  5  6  1  0
  6  7  1  0
  7  8  1  0
  8  9  1  0
  9 10  1  0
 10 11  2  0
 10 12  1  0
 12 13  2  0
 13 14  1  0
 14 15  2  0
 15 16  1  0
 16 17  2  0
 16 18  1  0
 18 19  1  0
 19 20  1  0
 20 21  1  0
 21 22  1  0
  6  2  1  0
 17 12  1  0
 22 15  1  0
  1 23  1  0
  1 24  1  0
  1 25  1  0
  2 26  1  0
  4 27  1  0
  4 28  1  0
  5 29  1  0
  5 30  1  0
  6 31  1  0
  7 32  1  0
  7 33  1  0
  8 34  1  0
  8 35  1  0
  9 36  1  0
 13 37  1  0
 14 38  1  0
 17 39  1  0
 18 40  1  0
 18 41  1  0
 19 42  1  0
 19 43  1  0
 20 44  1  0
 20 45  1  0
 21 46  1  0
 22 47  1  0
 22 48  1  0
M  END
>  <Energy>  (1388) 
404.57845627900696

>  <compound_id>  (1388) 
62418

>  <target_id>  (1388) 
1

>  <reference_id>  (1388) 
28

>  <inspiration_ids>  (1388) 
[28, 146]

>  <energy_score>  (1388) 
332.48399839627393

>  <distance_score>  (1388) 
12.992672950877637

>  <path>  (1388) 
/opt/xchem-fragalysis-2/maxwin/BulkDock/SCRATCH/511021/C62418-P28/C62418-P28.minimised.mol

>  <scratch_subdir>  (1388) 
/opt/xchem-fragalysis-2/maxwin/BulkDock/SCRATCH/511021/C62418-P28

>  <fragmenstein_runtime>  (1388) 
19.082124710083008

>  <fragmenstein_outcome>  (1388) 
too moved

>  <fragmenstein_mode>  (1388) 
expansion

>  <fragmenstein_error>  (1388) 


$$$$
C62418-P146
     RDKit          3D

 48 50  0  0  0  0  0  0  0  0999 V2000
    4.9967  -17.1623   16.4005 C   0  0  0  0  0  0  0  0  0  0  0  0
    3.9519  -16.3097   17.1354 C   0  0  0  0  0  0  0  0  0  0  0  0
    3.1637  -17.4113   17.7036 O   0  0  0  0  0  0  0  0  0  0  0  0
    2.4890  -16.8871   18.8015 C   0  0  0  0  0  0  0  0  0  0  0  0
    2.8660  -15.4489   18.8965 C   0  0  0  0  0  0  0  0  0  0  0  0
    4.2861  -15.2683   18.4092 C   0  0  0  0  0  0  0  0  0  0  0  0
    4.8027  -13.5131   19.0233 C   0  0  0  0  0  0  0  0  0  0  0  0
    6.1419  -12.6781   20.1275 C   0  0  0  0  0  0  0  0  0  0  0  0
    7.2546  -11.2457   19.9654 N   0  0  0  0  0  0  0  0  0  0  0  0
    8.5209  -10.7504   20.8978 C   0  0  0  0  0  0  0  0  0  0  0  0
    8.9406  -11.2770   21.8991 O   0  0  0  0  0  0  0  0  0  0  0  0
    9.5274   -9.2716   20.5135 C   0  0  0  0  0  0  0  0  0  0  0  0
   10.5214   -8.9878   21.4456 C   0  0  0  0  0  0  0  0  0  0  0  0
   11.2835   -7.5491   21.5096 C   0  0  0  0  0  0  0  0  0  0  0  0
   11.3379   -6.0346   20.6621 C   0  0  0  0  0  0  0  0  0  0  0  0
   10.2050   -5.9721   19.5814 C   0  0  0  0  0  0  0  0  0  0  0  0
    9.4486   -7.8049   19.8317 C   0  0  0  0  0  0  0  0  0  0  0  0
   11.1753   -4.9196   17.9684 C   0  0  0  0  0  0  0  0  0  0  0  0
   12.6325   -4.2208   18.1086 C   0  0  0  0  0  0  0  0  0  0  0  0
   13.8158   -4.7747   18.8774 C   0  0  0  0  0  0  0  0  0  0  0  0
   13.7203   -5.2308   20.2490 N   0  0  0  0  0  0  0  0  0  0  0  0
   12.4663   -5.0580   20.9574 C   0  0  0  0  0  0  0  0  0  0  0  0
    4.4895  -17.8900   15.7525 H   0  0  0  0  0  0  0  0  0  0  0  0
    5.5774  -17.7648   17.1100 H   0  0  0  0  0  0  0  0  0  0  0  0
    5.6836  -16.6186   15.7577 H   0  0  0  0  0  0  0  0  0  0  0  0
    3.2282  -15.8989   16.4485 H   0  0  0  0  0  0  0  0  0  0  0  0
    2.7385  -17.4578   19.6991 H   0  0  0  0  0  0  0  0  0  0  0  0
    1.4383  -16.9327   18.5796 H   0  0  0  0  0  0  0  0  0  0  0  0
    2.7071  -15.1393   19.9188 H   0  0  0  0  0  0  0  0  0  0  0  0
    2.2472  -14.8671   18.2032 H   0  0  0  0  0  0  0  0  0  0  0  0
    5.0103  -15.9524   18.8437 H   0  0  0  0  0  0  0  0  0  0  0  0
    4.1291  -13.3872   19.8675 H   0  0  0  0  0  0  0  0  0  0  0  0
    4.2283  -12.8697   18.3475 H   0  0  0  0  0  0  0  0  0  0  0  0
    5.5536  -12.3179   20.9823 H   0  0  0  0  0  0  0  0  0  0  0  0
    6.7071  -13.4721   20.6358 H   0  0  0  0  0  0  0  0  0  0  0  0
    7.1911  -10.6384   19.1305 H   0  0  0  0  0  0  0  0  0  0  0  0
   10.7412   -9.6778   22.2622 H   0  0  0  0  0  0  0  0  0  0  0  0
   11.8768   -7.5022   22.4586 H   0  0  0  0  0  0  0  0  0  0  0  0
    8.2680   -8.0077   19.8603 H   0  0  0  0  0  0  0  0  0  0  0  0
   11.4575   -5.5937   17.0656 H   0  0  0  0  0  0  0  0  0  0  0  0
   10.6707   -4.3007   17.2435 H   0  0  0  0  0  0  0  0  0  0  0  0
   12.5219   -3.1779   18.3801 H   0  0  0  0  0  0  0  0  0  0  0  0
   12.9858   -4.1290   17.0679 H   0  0  0  0  0  0  0  0  0  0  0  0
   14.2974   -5.5512   18.2724 H   0  0  0  0  0  0  0  0  0  0  0  0
   14.5673   -3.9715   18.8771 H   0  0  0  0  0  0  0  0  0  0  0  0
   14.4760   -4.8280   20.7981 H   0  0  0  0  0  0  0  0  0  0  0  0
   12.1685   -4.0120   20.9352 H   0  0  0  0  0  0  0  0  0  0  0  0
   12.7116   -5.2115   22.0167 H   0  0  0  0  0  0  0  0  0  0  0  0
  1  2  1  0
  2  3  1  0
  3  4  1  0
  4  5  1  0
  5  6  1  0
  6  7  1  0
  7  8  1  0
  8  9  1  0
  9 10  1  0
 10 11  2  0
 10 12  1  0
 12 13  2  0
 13 14  1  0
 14 15  2  0
 15 16  1  0
 16 17  2  0
 16 18  1  0
 18 19  1  0
 19 20  1  0
 20 21  1  0
 21 22  1  0
  6  2  1  0
 17 12  1  0
 22 15  1  0
  1 23  1  0
  1 24  1  0
  1 25  1  0
  2 26  1  0
  4 27  1  0
  4 28  1  0
  5 29  1  0
  5 30  1  0
  6 31  1  0
  7 32  1  0
  7 33  1  0
  8 34  1  0
  8 35  1  0
  9 36  1  0
 13 37  1  0
 14 38  1  0
 17 39  1  0
 18 40  1  0
 18 41  1  0
 19 42  1  0
 19 43  1  0
 20 44  1  0
 20 45  1  0
 21 46  1  0
 22 47  1  0
 22 48  1  0
M  END
>  <Energy>  (1389) 
728.62234934329786

>  <compound_id>  (1389) 
62418

>  <target_id>  (1389) 
1

>  <reference_id>  (1389) 
146

>  <inspiration_ids>  (1389) 
[28, 146]

>  <energy_score>  (1389) 
656.527891460568

>  <distance_score>  (1389) 
11.304483517102284

>  <path>  (1389) 
/opt/xchem-fragalysis-2/maxwin/BulkDock/SCRATCH/511021/C62418-P146/C62418-P146.minimised.mol

>  <scratch_subdir>  (1389) 
/opt/xchem-fragalysis-2/maxwin/BulkDock/SCRATCH/511021/C62418-P146

>  <fragmenstein_runtime>  (1389) 
20.3503098487854

>  <fragmenstein_outcome>  (1389) 
too moved

>  <fragmenstein_mode>  (1389) 
expansion

>  <fragmenstein_error>  (1389) 


$$$$
C62419-P28
     RDKit          3D

 42 45  0  0  0  0  0  0  0  0999 V2000
    4.7554  -16.3282   16.0572 O   0  0  0  0  0  0  0  0  0  0  0  0
    3.8638  -16.5707   16.8209 C   0  0  0  0  0  0  0  0  0  0  0  0
    3.3804  -15.8067   18.0362 N   0  0  0  0  0  0  0  0  0  0  0  0
    3.8502  -14.3067   18.6658 C   0  0  0  0  0  0  0  0  0  0  0  0
    4.6288  -13.4108   20.0401 C   0  0  0  0  0  0  0  0  0  0  0  0
    4.3630  -13.3302   21.4520 C   0  0  0  0  0  0  0  0  0  0  0  0
    5.0127  -12.4021   22.3977 C   0  0  0  0  0  0  0  0  0  0  0  0
    5.9160  -11.4500   21.9487 C   0  0  0  0  0  0  0  0  0  0  0  0
    6.2623  -11.5318   20.6350 C   0  0  0  0  0  0  0  0  0  0  0  0
    5.7752  -12.6579   19.8792 C   0  0  0  0  0  0  0  0  0  0  0  0
    7.1371  -10.3766   20.2541 C   0  0  0  0  0  0  0  0  0  0  0  0
    7.0584   -9.4558   21.4088 N   0  0  0  0  0  0  0  0  0  0  0  0
    6.6011  -10.2715   22.5562 C   0  0  0  0  0  0  0  0  0  0  0  0
    3.2018  -17.9471   16.4496 C   0  0  0  0  0  0  0  0  0  0  0  0
    3.3053  -18.5698   15.1847 C   0  0  0  0  0  0  0  0  0  0  0  0
    2.5590  -19.7304   14.9195 N   0  0  0  0  0  0  0  0  0  0  0  0
    1.8812  -20.0589   15.9902 C   0  0  0  0  0  0  0  0  0  0  0  0
    0.7571  -21.0519   16.0645 C   0  0  0  0  0  0  0  0  0  0  0  0
    0.6145  -21.9769   14.8698 C   0  0  0  0  0  0  0  0  0  0  0  0
   -0.8356  -22.4328   14.9799 C   0  0  0  0  0  0  0  0  0  0  0  0
   -1.5650  -21.3570   15.5887 O   0  0  0  0  0  0  0  0  0  0  0  0
   -0.6136  -20.3823   16.0384 C   0  0  0  0  0  0  0  0  0  0  0  0
    2.3551  -19.1477   17.3817 S   0  0  0  0  0  0  0  0  0  0  0  0
    2.5599  -16.2469   18.3970 H   0  0  0  0  0  0  0  0  0  0  0  0
    2.9597  -14.4660   19.2848 H   0  0  0  0  0  0  0  0  0  0  0  0
    3.5587  -13.5299   17.9983 H   0  0  0  0  0  0  0  0  0  0  0  0
    3.6410  -13.9937   21.9011 H   0  0  0  0  0  0  0  0  0  0  0  0
    4.7067  -12.4251   23.4403 H   0  0  0  0  0  0  0  0  0  0  0  0
    6.3769  -13.4685   20.4409 H   0  0  0  0  0  0  0  0  0  0  0  0
    8.1721  -10.7083   20.1235 H   0  0  0  0  0  0  0  0  0  0  0  0
    6.7826   -9.8704   19.3541 H   0  0  0  0  0  0  0  0  0  0  0  0
    7.9689   -9.0409   21.5882 H   0  0  0  0  0  0  0  0  0  0  0  0
    5.9168   -9.6869   23.1773 H   0  0  0  0  0  0  0  0  0  0  0  0
    7.4550  -10.6040   23.1560 H   0  0  0  0  0  0  0  0  0  0  0  0
    3.8865  -18.1532   14.3681 H   0  0  0  0  0  0  0  0  0  0  0  0
    0.8515  -21.6641   16.9712 H   0  0  0  0  0  0  0  0  0  0  0  0
    1.3202  -22.8129   14.8773 H   0  0  0  0  0  0  0  0  0  0  0  0
    0.7528  -21.4322   13.9273 H   0  0  0  0  0  0  0  0  0  0  0  0
   -1.2750  -22.6758   14.0086 H   0  0  0  0  0  0  0  0  0  0  0  0
   -0.9129  -23.3080   15.6320 H   0  0  0  0  0  0  0  0  0  0  0  0
   -0.9181  -20.0055   17.0196 H   0  0  0  0  0  0  0  0  0  0  0  0
   -0.6596  -19.5560   15.3218 H   0  0  0  0  0  0  0  0  0  0  0  0
  1  2  2  0
  2  3  1  0
  3  4  1  0
  4  5  1  0
  5  6  2  0
  6  7  1  0
  7  8  2  0
  8  9  1  0
  9 10  2  0
  9 11  1  0
 11 12  1  0
 12 13  1  0
  2 14  1  0
 14 15  2  0
 15 16  1  0
 16 17  2  0
 17 18  1  0
 18 19  1  0
 19 20  1  0
 20 21  1  0
 21 22  1  0
 17 23  1  0
 10  5  1  0
 23 14  1  0
 13  8  1  0
 22 18  1  0
  3 24  1  0
  4 25  1  0
  4 26  1  0
  6 27  1  0
  7 28  1  0
 10 29  1  0
 11 30  1  0
 11 31  1  0
 12 32  1  0
 13 33  1  0
 13 34  1  0
 15 35  1  0
 18 36  1  0
 19 37  1  0
 19 38  1  0
 20 39  1  0
 20 40  1  0
 22 41  1  0
 22 42  1  0
M  END
>  <Energy>  (1390) 
215.56246161227375

>  <compound_id>  (1390) 
62419

>  <target_id>  (1390) 
1

>  <reference_id>  (1390) 
28

>  <inspiration_ids>  (1390) 
[28, 146]

>  <energy_score>  (1390) 
154.74970687922038

>  <distance_score>  (1390) 
15.283583543454107

>  <path>  (1390) 
/opt/xchem-fragalysis-2/maxwin/BulkDock/SCRATCH/511021/C62419-P28/C62419-P28.minimised.mol

>  <scratch_subdir>  (1390) 
/opt/xchem-fragalysis-2/maxwin/BulkDock/SCRATCH/511021/C62419-P28

>  <fragmenstein_runtime>  (1390) 
17.578521251678467

>  <fragmenstein_outcome>  (1390) 
too moved

>  <fragmenstein_mode>  (1390) 
expansion

>  <fragmenstein_error>  (1390) 


$$$$
C62419-P146
     RDKit          3D

 42 45  0  0  0  0  0  0  0  0999 V2000
    5.3005  -16.8870    7.9111 O   0  0  0  0  0  0  0  0  0  0  0  0
    5.2209  -17.0058    9.0999 C   0  0  0  0  0  0  0  0  0  0  0  0
    6.1223  -16.5739   10.1545 N   0  0  0  0  0  0  0  0  0  0  0  0
    7.4516  -15.9477   10.0888 C   0  0  0  0  0  0  0  0  0  0  0  0
    7.8233  -14.6171   10.7818 C   0  0  0  0  0  0  0  0  0  0  0  0
    9.0778  -14.5427   11.4638 C   0  0  0  0  0  0  0  0  0  0  0  0
    9.5998  -13.3471   11.9772 C   0  0  0  0  0  0  0  0  0  0  0  0
    8.8744  -12.1968   11.7723 C   0  0  0  0  0  0  0  0  0  0  0  0
    7.6517  -12.2198   11.1101 C   0  0  0  0  0  0  0  0  0  0  0  0
    7.1145  -13.4127   10.6112 C   0  0  0  0  0  0  0  0  0  0  0  0
    7.1135  -10.8224   11.0622 C   0  0  0  0  0  0  0  0  0  0  0  0
    8.2461   -9.9420   11.4397 N   0  0  0  0  0  0  0  0  0  0  0  0
    9.1922  -10.8110   12.1848 C   0  0  0  0  0  0  0  0  0  0  0  0
    4.0090  -17.7831    9.5465 C   0  0  0  0  0  0  0  0  0  0  0  0
    2.8827  -18.0545    8.7639 C   0  0  0  0  0  0  0  0  0  0  0  0
    1.8664  -18.8135    9.3195 N   0  0  0  0  0  0  0  0  0  0  0  0
    2.1829  -19.1328   10.5569 C   0  0  0  0  0  0  0  0  0  0  0  0
    1.2497  -19.8488   11.4973 C   0  0  0  0  0  0  0  0  0  0  0  0
    1.4194  -21.3545   11.5418 C   0  0  0  0  0  0  0  0  0  0  0  0
    0.0765  -21.8189   12.0937 C   0  0  0  0  0  0  0  0  0  0  0  0
   -0.9103  -20.8898   11.6347 O   0  0  0  0  0  0  0  0  0  0  0  0
   -0.2150  -19.7624   11.0617 C   0  0  0  0  0  0  0  0  0  0  0  0
    3.7998  -18.6328   11.0257 S   0  0  0  0  0  0  0  0  0  0  0  0
    5.7777  -16.9172   11.0457 H   0  0  0  0  0  0  0  0  0  0  0  0
    8.1270  -16.7273   10.4614 H   0  0  0  0  0  0  0  0  0  0  0  0
    7.6862  -15.8220    9.0246 H   0  0  0  0  0  0  0  0  0  0  0  0
    9.6677  -15.4513   11.5890 H   0  0  0  0  0  0  0  0  0  0  0  0
   10.5517  -13.3332   12.4970 H   0  0  0  0  0  0  0  0  0  0  0  0
    6.1801  -13.4005   10.0565 H   0  0  0  0  0  0  0  0  0  0  0  0
    6.7503  -10.5652   10.0625 H   0  0  0  0  0  0  0  0  0  0  0  0
    6.3014  -10.7061   11.7869 H   0  0  0  0  0  0  0  0  0  0  0  0
    8.7115   -9.6689   10.5736 H   0  0  0  0  0  0  0  0  0  0  0  0
   10.2264  -10.5591   11.9313 H   0  0  0  0  0  0  0  0  0  0  0  0
    9.0315  -10.7133   13.2631 H   0  0  0  0  0  0  0  0  0  0  0  0
    2.7638  -17.6973    7.7469 H   0  0  0  0  0  0  0  0  0  0  0  0
    1.3442  -19.4542   12.5147 H   0  0  0  0  0  0  0  0  0  0  0  0
    2.2613  -21.6829   12.1584 H   0  0  0  0  0  0  0  0  0  0  0  0
    1.5657  -21.7605   10.5326 H   0  0  0  0  0  0  0  0  0  0  0  0
   -0.1830  -22.8286   11.7634 H   0  0  0  0  0  0  0  0  0  0  0  0
    0.0737  -21.7973   13.1887 H   0  0  0  0  0  0  0  0  0  0  0  0
   -0.3384  -19.8456    9.9756 H   0  0  0  0  0  0  0  0  0  0  0  0
   -0.7034  -18.8377   11.3738 H   0  0  0  0  0  0  0  0  0  0  0  0
  1  2  2  0
  2  3  1  0
  3  4  1  0
  4  5  1  0
  5  6  2  0
  6  7  1  0
  7  8  2  0
  8  9  1  0
  9 10  2  0
  9 11  1  0
 11 12  1  0
 12 13  1  0
  2 14  1  0
 14 15  2  0
 15 16  1  0
 16 17  2  0
 17 18  1  0
 18 19  1  0
 19 20  1  0
 20 21  1  0
 21 22  1  0
 17 23  1  0
 10  5  1  0
 23 14  1  0
 13  8  1  0
 22 18  1  0
  3 24  1  0
  4 25  1  0
  4 26  1  0
  6 27  1  0
  7 28  1  0
 10 29  1  0
 11 30  1  0
 11 31  1  0
 12 32  1  0
 13 33  1  0
 13 34  1  0
 15 35  1  0
 18 36  1  0
 19 37  1  0
 19 38  1  0
 20 39  1  0
 20 40  1  0
 22 41  1  0
 22 42  1  0
M  END
>  <Energy>  (1391) 
28.132615493267103

>  <compound_id>  (1391) 
62419

>  <target_id>  (1391) 
1

>  <reference_id>  (1391) 
146

>  <inspiration_ids>  (1391) 
[28, 146]

>  <energy_score>  (1391) 
-32.68013923977952

>  <distance_score>  (1391) 
14.572195350150674

>  <path>  (1391) 
/opt/xchem-fragalysis-2/maxwin/BulkDock/SCRATCH/511021/C62419-P146/C62419-P146.minimised.mol

>  <scratch_subdir>  (1391) 
/opt/xchem-fragalysis-2/maxwin/BulkDock/SCRATCH/511021/C62419-P146

>  <fragmenstein_runtime>  (1391) 
16.85302495956421

>  <fragmenstein_outcome>  (1391) 
too moved

>  <fragmenstein_mode>  (1391) 
expansion

>  <fragmenstein_error>  (1391) 


$$$$
C62420-P28
     RDKit          3D

 36 38  0  0  0  0  0  0  0  0999 V2000
    6.7143  -12.2089    9.8211 C   0  0  0  0  0  0  0  0  0  0  0  0
    7.6473  -11.1558   10.0266 C   0  0  0  0  0  0  0  0  0  0  0  0
    7.3311   -9.8301    9.6871 C   0  0  0  0  0  0  0  0  0  0  0  0
    6.0386   -9.5509    9.2230 C   0  0  0  0  0  0  0  0  0  0  0  0
    5.1108  -10.6062    9.0675 C   0  0  0  0  0  0  0  0  0  0  0  0
    5.4439  -11.9469    9.3068 C   0  0  0  0  0  0  0  0  0  0  0  0
    4.4251  -12.8559    9.0720 O   0  0  0  0  0  0  0  0  0  0  0  0
    4.6721  -14.1491    8.4352 C   0  0  0  0  0  0  0  0  0  0  0  0
    3.3144  -14.9619    8.2029 C   0  0  0  0  0  0  0  0  0  0  0  0
    3.3508  -16.0493    7.1355 C   0  0  0  0  0  0  0  0  0  0  0  0
    2.1296  -16.8916    7.4661 C   0  0  0  0  0  0  0  0  0  0  0  0
    2.1566  -16.8944    8.9737 C   0  0  0  0  0  0  0  0  0  0  0  0
    2.8371  -15.6885    9.3616 O   0  0  0  0  0  0  0  0  0  0  0  0
    5.6393   -8.1675    8.7575 C   0  0  0  0  0  0  0  0  0  0  0  0
    6.6118   -7.1123    9.0096 N   0  0  0  0  0  0  0  0  0  0  0  0
    7.9829   -7.5777    8.8070 C   0  0  0  0  0  0  0  0  0  0  0  0
    8.3179   -8.6922    9.7998 C   0  0  0  0  0  0  0  0  0  0  0  0
    6.9964  -13.2249   10.0798 H   0  0  0  0  0  0  0  0  0  0  0  0
    8.6314  -11.3980   10.4198 H   0  0  0  0  0  0  0  0  0  0  0  0
    4.1104  -10.3831    8.6987 H   0  0  0  0  0  0  0  0  0  0  0  0
    5.1299  -13.9463    7.4607 H   0  0  0  0  0  0  0  0  0  0  0  0
    5.3605  -14.7368    9.0495 H   0  0  0  0  0  0  0  0  0  0  0  0
    2.5455  -14.2312    7.9363 H   0  0  0  0  0  0  0  0  0  0  0  0
    4.2582  -16.6561    7.2421 H   0  0  0  0  0  0  0  0  0  0  0  0
    3.3258  -15.6432    6.1206 H   0  0  0  0  0  0  0  0  0  0  0  0
    1.2260  -16.3908    7.1014 H   0  0  0  0  0  0  0  0  0  0  0  0
    2.1611  -17.8955    7.0349 H   0  0  0  0  0  0  0  0  0  0  0  0
    1.1608  -16.9236    9.4226 H   0  0  0  0  0  0  0  0  0  0  0  0
    2.7371  -17.7380    9.3607 H   0  0  0  0  0  0  0  0  0  0  0  0
    5.4559   -8.2210    7.6767 H   0  0  0  0  0  0  0  0  0  0  0  0
    4.6963   -7.8860    9.2396 H   0  0  0  0  0  0  0  0  0  0  0  0
    6.4348   -6.3298    8.3822 H   0  0  0  0  0  0  0  0  0  0  0  0
    8.1297   -7.9090    7.7716 H   0  0  0  0  0  0  0  0  0  0  0  0
    8.6405   -6.7328    8.9804 H   0  0  0  0  0  0  0  0  0  0  0  0
    8.2545   -8.2840   10.8101 H   0  0  0  0  0  0  0  0  0  0  0  0
    9.3384   -9.0489    9.6244 H   0  0  0  0  0  0  0  0  0  0  0  0
  1  2  2  0
  2  3  1  0
  3  4  2  0
  4  5  1  0
  5  6  2  0
  6  7  1  0
  7  8  1  0
  8  9  1  0
  9 10  1  0
 10 11  1  0
 11 12  1  0
 12 13  1  0
  4 14  1  0
 14 15  1  0
 15 16  1  0
 16 17  1  0
  6  1  1  0
 13  9  1  0
 17  3  1  0
  1 18  1  0
  2 19  1  0
  5 20  1  0
  8 21  1  0
  8 22  1  0
  9 23  1  0
 10 24  1  0
 10 25  1  0
 11 26  1  0
 11 27  1  0
 12 28  1  0
 12 29  1  0
 14 30  1  0
 14 31  1  0
 15 32  1  0
 16 33  1  0
 16 34  1  0
 17 35  1  0
 17 36  1  0
M  END
>  <Energy>  (1392) 
69.038247934501868

>  <compound_id>  (1392) 
62420

>  <target_id>  (1392) 
1

>  <reference_id>  (1392) 
28

>  <inspiration_ids>  (1392) 
[28, 146]

>  <energy_score>  (1392) 
-14.083574513597284

>  <distance_score>  (1392) 
13.250422095246083

>  <path>  (1392) 
/opt/xchem-fragalysis-2/maxwin/BulkDock/SCRATCH/511021/C62420-P28/C62420-P28.minimised.mol

>  <scratch_subdir>  (1392) 
/opt/xchem-fragalysis-2/maxwin/BulkDock/SCRATCH/511021/C62420-P28

>  <fragmenstein_runtime>  (1392) 
10.749059677124023

>  <fragmenstein_outcome>  (1392) 
too moved

>  <fragmenstein_mode>  (1392) 
expansion

>  <fragmenstein_error>  (1392) 


$$$$
C62420-P146
     RDKit          3D

 36 38  0  0  0  0  0  0  0  0999 V2000
    8.2106   -5.5851   10.4697 C   0  0  0  0  0  0  0  0  0  0  0  0
   10.2330   -4.9956   10.3744 C   0  0  0  0  0  0  0  0  0  0  0  0
   11.0714   -4.5506   12.0076 C   0  0  0  0  0  0  0  0  0  0  0  0
   10.3991   -4.7548   13.6991 C   0  0  0  0  0  0  0  0  0  0  0  0
    8.6082   -5.6697   13.8481 C   0  0  0  0  0  0  0  0  0  0  0  0
    7.7518   -6.4853   12.1710 C   0  0  0  0  0  0  0  0  0  0  0  0
    6.9676   -7.6537   12.2249 O   0  0  0  0  0  0  0  0  0  0  0  0
    6.2061   -8.0021   11.0343 C   0  0  0  0  0  0  0  0  0  0  0  0
    5.2699   -9.2744   11.2209 C   0  0  0  0  0  0  0  0  0  0  0  0
    5.8971  -10.6176   10.8266 C   0  0  0  0  0  0  0  0  0  0  0  0
    4.8825  -11.3205    9.9351 C   0  0  0  0  0  0  0  0  0  0  0  0
    3.6282  -10.5008   10.0763 C   0  0  0  0  0  0  0  0  0  0  0  0
    4.0759   -9.1775   10.4002 O   0  0  0  0  0  0  0  0  0  0  0  0
   10.8067   -3.7263   14.7404 C   0  0  0  0  0  0  0  0  0  0  0  0
   11.3056   -2.4847   14.1659 N   0  0  0  0  0  0  0  0  0  0  0  0
   12.4966   -2.7400   13.3844 C   0  0  0  0  0  0  0  0  0  0  0  0
   12.3551   -3.7553   12.2297 C   0  0  0  0  0  0  0  0  0  0  0  0
    7.8199   -6.1459    9.5857 H   0  0  0  0  0  0  0  0  0  0  0  0
   10.7472   -4.9909    9.4143 H   0  0  0  0  0  0  0  0  0  0  0  0
    8.4457   -6.3523   14.7402 H   0  0  0  0  0  0  0  0  0  0  0  0
    6.8987   -8.1833   10.2055 H   0  0  0  0  0  0  0  0  0  0  0  0
    5.5711   -7.1470   10.7739 H   0  0  0  0  0  0  0  0  0  0  0  0
    4.9562   -9.3181   12.2691 H   0  0  0  0  0  0  0  0  0  0  0  0
    6.1486  -11.2024   11.7169 H   0  0  0  0  0  0  0  0  0  0  0  0
    6.8406  -10.4825   10.2858 H   0  0  0  0  0  0  0  0  0  0  0  0
    5.2339  -11.2676    8.8973 H   0  0  0  0  0  0  0  0  0  0  0  0
    4.7455  -12.3773   10.1689 H   0  0  0  0  0  0  0  0  0  0  0  0
    2.9816  -10.8664   10.8733 H   0  0  0  0  0  0  0  0  0  0  0  0
    3.0548  -10.4595    9.1470 H   0  0  0  0  0  0  0  0  0  0  0  0
   11.4580   -4.1176   15.5222 H   0  0  0  0  0  0  0  0  0  0  0  0
    9.8704   -3.4162   15.1719 H   0  0  0  0  0  0  0  0  0  0  0  0
   10.5662   -2.0927   13.5667 H   0  0  0  0  0  0  0  0  0  0  0  0
   12.8606   -1.7855   12.9857 H   0  0  0  0  0  0  0  0  0  0  0  0
   13.2965   -3.0464   14.0644 H   0  0  0  0  0  0  0  0  0  0  0  0
   13.1301   -4.4801   12.3892 H   0  0  0  0  0  0  0  0  0  0  0  0
   12.6251   -3.2544   11.3314 H   0  0  0  0  0  0  0  0  0  0  0  0
  1  2  2  0
  2  3  1  0
  3  4  2  0
  4  5  1  0
  5  6  2  0
  6  7  1  0
  7  8  1  0
  8  9  1  0
  9 10  1  0
 10 11  1  0
 11 12  1  0
 12 13  1  0
  4 14  1  0
 14 15  1  0
 15 16  1  0
 16 17  1  0
  6  1  1  0
 13  9  1  0
 17  3  1  0
  1 18  1  0
  2 19  1  0
  5 20  1  0
  8 21  1  0
  8 22  1  0
  9 23  1  0
 10 24  1  0
 10 25  1  0
 11 26  1  0
 11 27  1  0
 12 28  1  0
 12 29  1  0
 14 30  1  0
 14 31  1  0
 15 32  1  0
 16 33  1  0
 16 34  1  0
 17 35  1  0
 17 36  1  0
M  END
>  <Energy>  (1393) 
732.02695131623659

>  <compound_id>  (1393) 
62420

>  <target_id>  (1393) 
1

>  <reference_id>  (1393) 
146

>  <inspiration_ids>  (1393) 
[28, 146]

>  <energy_score>  (1393) 
648.9051288681342

>  <distance_score>  (1393) 
12.857736210975274

>  <path>  (1393) 
/opt/xchem-fragalysis-2/maxwin/BulkDock/SCRATCH/511021/C62420-P146/C62420-P146.minimised.mol

>  <scratch_subdir>  (1393) 
/opt/xchem-fragalysis-2/maxwin/BulkDock/SCRATCH/511021/C62420-P146

>  <fragmenstein_runtime>  (1393) 
15.170305013656616

>  <fragmenstein_outcome>  (1393) 
too moved

>  <fragmenstein_mode>  (1393) 
expansion

>  <fragmenstein_error>  (1393) 


$$$$
C62421-P28
     RDKit          3D

 33 35  0  0  0  0  0  0  0  0999 V2000
    1.4686   -5.4314   12.5375 C   0  0  0  0  0  0  0  0  0  0  0  0
    2.5585   -4.5897   12.2385 C   0  0  0  0  0  0  0  0  0  0  0  0
    3.1121   -3.8419   13.2545 C   0  0  0  0  0  0  0  0  0  0  0  0
    2.6715   -3.9984   14.5615 C   0  0  0  0  0  0  0  0  0  0  0  0
    1.5957   -4.8383   14.8709 C   0  0  0  0  0  0  0  0  0  0  0  0
    0.9359   -5.5303   13.8369 C   0  0  0  0  0  0  0  0  0  0  0  0
   -0.2205   -6.2343   14.1823 O   0  0  0  0  0  0  0  0  0  0  0  0
   -1.0630   -6.7589   13.1166 C   0  0  0  0  0  0  0  0  0  0  0  0
   -2.4892   -7.2417   13.5677 C   0  0  0  0  0  0  0  0  0  0  0  0
   -2.5996   -8.3701   14.5776 C   0  0  0  0  0  0  0  0  0  0  0  0
   -4.0456   -8.8007   14.4140 C   0  0  0  0  0  0  0  0  0  0  0  0
   -4.2834   -8.6322   12.9263 C   0  0  0  0  0  0  0  0  0  0  0  0
   -3.2657   -7.7333   12.4436 O   0  0  0  0  0  0  0  0  0  0  0  0
    3.4511   -3.0718   15.4349 C   0  0  0  0  0  0  0  0  0  0  0  0
    4.5153   -2.4987   14.5737 N   0  0  0  0  0  0  0  0  0  0  0  0
    4.0907   -2.7212   13.1819 C   0  0  0  0  0  0  0  0  0  0  0  0
    1.0242   -5.9850   11.7142 H   0  0  0  0  0  0  0  0  0  0  0  0
    2.9061   -4.4930   11.2145 H   0  0  0  0  0  0  0  0  0  0  0  0
    1.2244   -4.9055   15.8884 H   0  0  0  0  0  0  0  0  0  0  0  0
   -0.5560   -7.5893   12.6170 H   0  0  0  0  0  0  0  0  0  0  0  0
   -1.2203   -5.9748   12.3646 H   0  0  0  0  0  0  0  0  0  0  0  0
   -3.0175   -6.3647   13.9655 H   0  0  0  0  0  0  0  0  0  0  0  0
   -2.3531   -8.0602   15.5963 H   0  0  0  0  0  0  0  0  0  0  0  0
   -1.9409   -9.1832   14.2870 H   0  0  0  0  0  0  0  0  0  0  0  0
   -4.2691   -9.7988   14.7908 H   0  0  0  0  0  0  0  0  0  0  0  0
   -4.6917   -8.1041   14.9631 H   0  0  0  0  0  0  0  0  0  0  0  0
   -5.2674   -8.2001   12.7201 H   0  0  0  0  0  0  0  0  0  0  0  0
   -4.1950   -9.5569   12.3565 H   0  0  0  0  0  0  0  0  0  0  0  0
    3.8839   -3.6151   16.2763 H   0  0  0  0  0  0  0  0  0  0  0  0
    2.7993   -2.2732   15.8054 H   0  0  0  0  0  0  0  0  0  0  0  0
    4.5992   -1.5003   14.7467 H   0  0  0  0  0  0  0  0  0  0  0  0
    4.9219   -2.9479   12.5230 H   0  0  0  0  0  0  0  0  0  0  0  0
    3.5822   -1.8266   12.8030 H   0  0  0  0  0  0  0  0  0  0  0  0
  1  2  2  0
  2  3  1  0
  3  4  2  0
  4  5  1  0
  5  6  2  0
  6  7  1  0
  7  8  1  0
  8  9  1  0
  9 10  1  0
 10 11  1  0
 11 12  1  0
 12 13  1  0
  4 14  1  0
 14 15  1  0
 15 16  1  0
  6  1  1  0
 13  9  1  0
 16  3  1  0
  1 17  1  0
  2 18  1  0
  5 19  1  0
  8 20  1  0
  8 21  1  0
  9 22  1  0
 10 23  1  0
 10 24  1  0
 11 25  1  0
 11 26  1  0
 12 27  1  0
 12 28  1  0
 14 29  1  0
 14 30  1  0
 15 31  1  0
 16 32  1  0
 16 33  1  0
M  END
>  <Energy>  (1394) 
53.292169479313593

>  <compound_id>  (1394) 
62421

>  <target_id>  (1394) 
1

>  <reference_id>  (1394) 
28

>  <inspiration_ids>  (1394) 
[28, 146]

>  <energy_score>  (1394) 
-14.513466860027336

>  <distance_score>  (1394) 
13.609118617869097

>  <path>  (1394) 
/opt/xchem-fragalysis-2/maxwin/BulkDock/SCRATCH/511021/C62421-P28/C62421-P28.minimised.mol

>  <scratch_subdir>  (1394) 
/opt/xchem-fragalysis-2/maxwin/BulkDock/SCRATCH/511021/C62421-P28

>  <fragmenstein_runtime>  (1394) 
11.004909753799438

>  <fragmenstein_outcome>  (1394) 
too moved

>  <fragmenstein_mode>  (1394) 
expansion

>  <fragmenstein_error>  (1394) 


$$$$
C62421-P146
     RDKit          3D

 33 35  0  0  0  0  0  0  0  0999 V2000
    4.6753   -8.2878   13.6556 C   0  0  0  0  0  0  0  0  0  0  0  0
    6.4193   -8.0470   13.8625 C   0  0  0  0  0  0  0  0  0  0  0  0
    7.5978   -9.1561   13.6095 C   0  0  0  0  0  0  0  0  0  0  0  0
    7.1974  -10.4995   13.2932 C   0  0  0  0  0  0  0  0  0  0  0  0
    5.7249  -10.9598   13.4881 C   0  0  0  0  0  0  0  0  0  0  0  0
    4.3676  -10.0114   13.4557 C   0  0  0  0  0  0  0  0  0  0  0  0
    3.4554  -10.5228   12.0259 O   0  0  0  0  0  0  0  0  0  0  0  0
    2.8684   -9.6647   10.7890 C   0  0  0  0  0  0  0  0  0  0  0  0
    1.2769   -9.7495   10.4838 C   0  0  0  0  0  0  0  0  0  0  0  0
    0.1313   -8.9134   11.1125 C   0  0  0  0  0  0  0  0  0  0  0  0
   -0.9070   -8.8138   10.0281 C   0  0  0  0  0  0  0  0  0  0  0  0
    0.0179   -8.5597    8.8741 C   0  0  0  0  0  0  0  0  0  0  0  0
    1.1300   -9.4538    9.0692 O   0  0  0  0  0  0  0  0  0  0  0  0
    8.4291  -11.3317   13.0080 C   0  0  0  0  0  0  0  0  0  0  0  0
    9.5048  -10.7771   13.8505 N   0  0  0  0  0  0  0  0  0  0  0  0
    8.8295   -9.6536   14.5717 C   0  0  0  0  0  0  0  0  0  0  0  0
    4.2924   -7.5870   12.9077 H   0  0  0  0  0  0  0  0  0  0  0  0
    6.6239   -7.4604   14.7431 H   0  0  0  0  0  0  0  0  0  0  0  0
    5.6684  -12.0366   13.5511 H   0  0  0  0  0  0  0  0  0  0  0  0
    3.2043   -8.6184   10.8372 H   0  0  0  0  0  0  0  0  0  0  0  0
    3.3768  -10.1271    9.9319 H   0  0  0  0  0  0  0  0  0  0  0  0
    0.9832  -10.7620   10.7453 H   0  0  0  0  0  0  0  0  0  0  0  0
    0.4719   -7.8972   11.3428 H   0  0  0  0  0  0  0  0  0  0  0  0
   -0.3299   -9.3626   11.9935 H   0  0  0  0  0  0  0  0  0  0  0  0
   -1.6232   -8.0035   10.1862 H   0  0  0  0  0  0  0  0  0  0  0  0
   -1.4549   -9.7549    9.9323 H   0  0  0  0  0  0  0  0  0  0  0  0
   -0.4411   -8.7018    7.8919 H   0  0  0  0  0  0  0  0  0  0  0  0
    0.4118   -7.5360    8.8973 H   0  0  0  0  0  0  0  0  0  0  0  0
    8.7025  -11.1868   11.9556 H   0  0  0  0  0  0  0  0  0  0  0  0
    8.3009  -12.4091   13.1496 H   0  0  0  0  0  0  0  0  0  0  0  0
   10.2393  -10.4690   13.2298 H   0  0  0  0  0  0  0  0  0  0  0  0
    9.4546   -8.8519   14.9275 H   0  0  0  0  0  0  0  0  0  0  0  0
    8.5258  -10.1133   15.5100 H   0  0  0  0  0  0  0  0  0  0  0  0
  1  2  2  0
  2  3  1  0
  3  4  2  0
  4  5  1  0
  5  6  2  0
  6  7  1  0
  7  8  1  0
  8  9  1  0
  9 10  1  0
 10 11  1  0
 11 12  1  0
 12 13  1  0
  4 14  1  0
 14 15  1  0
 15 16  1  0
  6  1  1  0
 13  9  1  0
 16  3  1  0
  1 17  1  0
  2 18  1  0
  5 19  1  0
  8 20  1  0
  8 21  1  0
  9 22  1  0
 10 23  1  0
 10 24  1  0
 11 25  1  0
 11 26  1  0
 12 27  1  0
 12 28  1  0
 14 29  1  0
 14 30  1  0
 15 31  1  0
 16 32  1  0
 16 33  1  0
M  END
>  <Energy>  (1395) 
330.9087026637506

>  <compound_id>  (1395) 
62421

>  <target_id>  (1395) 
1

>  <reference_id>  (1395) 
146

>  <inspiration_ids>  (1395) 
[28, 146]

>  <energy_score>  (1395) 
263.10306632440773

>  <distance_score>  (1395) 
13.823156314679101

>  <path>  (1395) 
/opt/xchem-fragalysis-2/maxwin/BulkDock/SCRATCH/511021/C62421-P146/C62421-P146.minimised.mol

>  <scratch_subdir>  (1395) 
/opt/xchem-fragalysis-2/maxwin/BulkDock/SCRATCH/511021/C62421-P146

>  <fragmenstein_runtime>  (1395) 
14.092895746231079

>  <fragmenstein_outcome>  (1395) 
too moved

>  <fragmenstein_mode>  (1395) 
expansion

>  <fragmenstein_error>  (1395) 


$$$$
C62422-P28
     RDKit          3D

 36 38  0  0  0  0  0  0  0  0999 V2000
   -1.7581  -12.5352   18.1296 C   0  0  0  0  0  0  0  0  0  0  0  0
   -0.9705  -14.0246   17.5947 C   0  0  0  0  0  0  0  0  0  0  0  0
    1.1440  -13.7751   17.5776 C   0  0  0  0  0  0  0  0  0  0  0  0
    2.6727  -12.3151   17.7409 O   0  0  0  0  0  0  0  0  0  0  0  0
    2.7838  -10.3550   17.6548 C   0  0  0  0  0  0  0  0  0  0  0  0
    3.7059   -9.1559   18.3687 C   0  0  0  0  0  0  0  0  0  0  0  0
    4.1061   -7.7028   18.8151 C   0  0  0  0  0  0  0  0  0  0  0  0
    3.1685   -6.8390   18.4038 C   0  0  0  0  0  0  0  0  0  0  0  0
    2.0079   -7.4629   17.9442 C   0  0  0  0  0  0  0  0  0  0  0  0
    1.7743   -9.0351   17.7949 C   0  0  0  0  0  0  0  0  0  0  0  0
    1.0359   -6.3592   17.6450 C   0  0  0  0  0  0  0  0  0  0  0  0
    1.8489   -5.1187   17.5551 N   0  0  0  0  0  0  0  0  0  0  0  0
    3.1136   -5.3725   18.2760 C   0  0  0  0  0  0  0  0  0  0  0  0
   -2.7273  -14.3719   16.8925 C   0  0  0  0  0  0  0  0  0  0  0  0
   -3.5449  -15.9528   17.0212 C   0  0  0  0  0  0  0  0  0  0  0  0
   -2.7954  -16.6526   18.2818 C   0  0  0  0  0  0  0  0  0  0  0  0
   -1.5528  -15.3198   18.7602 O   0  0  0  0  0  0  0  0  0  0  0  0
   -1.0919  -11.7381   18.4131 H   0  0  0  0  0  0  0  0  0  0  0  0
   -2.3815  -12.7974   18.9874 H   0  0  0  0  0  0  0  0  0  0  0  0
   -2.4419  -12.0388   17.4892 H   0  0  0  0  0  0  0  0  0  0  0  0
    1.7482  -14.6170   17.9639 H   0  0  0  0  0  0  0  0  0  0  0  0
    1.3013  -13.9185   16.5077 H   0  0  0  0  0  0  0  0  0  0  0  0
    2.9735   -9.0065   19.2952 H   0  0  0  0  0  0  0  0  0  0  0  0
    5.1131   -7.4740   19.1324 H   0  0  0  0  0  0  0  0  0  0  0  0
    0.6987   -9.0181   17.7353 H   0  0  0  0  0  0  0  0  0  0  0  0
    0.5079   -6.5275   16.7042 H   0  0  0  0  0  0  0  0  0  0  0  0
    0.3110   -6.2794   18.4624 H   0  0  0  0  0  0  0  0  0  0  0  0
    1.3532   -4.3447   17.9897 H   0  0  0  0  0  0  0  0  0  0  0  0
    3.9464   -4.9982   17.6796 H   0  0  0  0  0  0  0  0  0  0  0  0
    3.1020   -4.8956   19.2609 H   0  0  0  0  0  0  0  0  0  0  0  0
   -3.0070  -14.3280   15.8683 H   0  0  0  0  0  0  0  0  0  0  0  0
   -3.3981  -13.6403   17.2165 H   0  0  0  0  0  0  0  0  0  0  0  0
   -3.5502  -16.5169   16.0823 H   0  0  0  0  0  0  0  0  0  0  0  0
   -4.6278  -15.8411   17.0796 H   0  0  0  0  0  0  0  0  0  0  0  0
   -2.3086  -17.5871   17.9867 H   0  0  0  0  0  0  0  0  0  0  0  0
   -3.3348  -16.8345   19.2249 H   0  0  0  0  0  0  0  0  0  0  0  0
  1  2  1  0
  2  3  1  0
  3  4  1  0
  4  5  1  0
  5  6  2  0
  6  7  1  0
  7  8  2  0
  8  9  1  0
  9 10  2  0
  9 11  1  0
 11 12  1  0
 12 13  1  0
  2 14  1  0
 14 15  1  0
 15 16  1  0
 16 17  1  0
 17  2  1  0
 10  5  1  0
 13  8  1  0
  1 18  1  0
  1 19  1  0
  1 20  1  0
  3 21  1  0
  3 22  1  0
  6 23  1  0
  7 24  1  0
 10 25  1  0
 11 26  1  0
 11 27  1  0
 12 28  1  0
 13 29  1  0
 13 30  1  0
 14 31  1  0
 14 32  1  0
 15 33  1  0
 15 34  1  0
 16 35  1  0
 16 36  1  0
M  END
>  <Energy>  (1396) 
1000.6916534805409

>  <compound_id>  (1396) 
62422

>  <target_id>  (1396) 
1

>  <reference_id>  (1396) 
28

>  <inspiration_ids>  (1396) 
[28, 146]

>  <energy_score>  (1396) 
913.5402922168447

>  <distance_score>  (1396) 
12.428319313126414

>  <path>  (1396) 
/opt/xchem-fragalysis-2/maxwin/BulkDock/SCRATCH/511021/C62422-P28/C62422-P28.minimised.mol

>  <scratch_subdir>  (1396) 
/opt/xchem-fragalysis-2/maxwin/BulkDock/SCRATCH/511021/C62422-P28

>  <fragmenstein_runtime>  (1396) 
12.071451902389526

>  <fragmenstein_outcome>  (1396) 
too moved

>  <fragmenstein_mode>  (1396) 
expansion

>  <fragmenstein_error>  (1396) 


$$$$
C62422-P146
     RDKit          3D

 36 38  0  0  0  0  0  0  0  0999 V2000
    1.2767  -12.9097   13.4707 C   0  0  0  0  0  0  0  0  0  0  0  0
    2.4267  -12.8844   15.0726 C   0  0  0  0  0  0  0  0  0  0  0  0
    4.3847  -11.6959   15.0496 C   0  0  0  0  0  0  0  0  0  0  0  0
    6.1569  -10.8191   14.2603 O   0  0  0  0  0  0  0  0  0  0  0  0
    8.0651  -10.0662   14.4390 C   0  0  0  0  0  0  0  0  0  0  0  0
    9.6933  -10.2111   15.3269 C   0  0  0  0  0  0  0  0  0  0  0  0
   11.3089   -9.3056   15.9413 C   0  0  0  0  0  0  0  0  0  0  0  0
   11.8010   -7.4067   16.1302 C   0  0  0  0  0  0  0  0  0  0  0  0
   10.0194   -7.1899   15.3645 C   0  0  0  0  0  0  0  0  0  0  0  0
    8.6219   -8.3289   14.6201 C   0  0  0  0  0  0  0  0  0  0  0  0
   10.8794   -5.3398   14.9956 C   0  0  0  0  0  0  0  0  0  0  0  0
   11.7325   -4.9088   16.2624 N   0  0  0  0  0  0  0  0  0  0  0  0
   12.5554   -6.1256   16.6431 C   0  0  0  0  0  0  0  0  0  0  0  0
    1.5834  -14.4486   16.1883 C   0  0  0  0  0  0  0  0  0  0  0  0
   -0.1523  -14.6032   16.9681 C   0  0  0  0  0  0  0  0  0  0  0  0
    0.2755  -13.4993   17.5169 C   0  0  0  0  0  0  0  0  0  0  0  0
    1.5952  -13.4712   16.6056 O   0  0  0  0  0  0  0  0  0  0  0  0
    0.1730  -12.9146   13.3620 H   0  0  0  0  0  0  0  0  0  0  0  0
    1.3511  -12.0001   12.8738 H   0  0  0  0  0  0  0  0  0  0  0  0
    1.4391  -13.8074   12.8513 H   0  0  0  0  0  0  0  0  0  0  0  0
    4.0956  -11.1320   15.9348 H   0  0  0  0  0  0  0  0  0  0  0  0
    4.0129  -10.8996   14.3573 H   0  0  0  0  0  0  0  0  0  0  0  0
    9.7999  -11.2709   15.6413 H   0  0  0  0  0  0  0  0  0  0  0  0
   12.0211   -9.9889   16.4333 H   0  0  0  0  0  0  0  0  0  0  0  0
    7.8895   -7.7985   14.0348 H   0  0  0  0  0  0  0  0  0  0  0  0
   11.2989   -5.1834   13.9733 H   0  0  0  0  0  0  0  0  0  0  0  0
   10.1654   -4.4734   14.8977 H   0  0  0  0  0  0  0  0  0  0  0  0
   12.3457   -4.1414   15.9965 H   0  0  0  0  0  0  0  0  0  0  0  0
   13.6076   -6.1237   16.3196 H   0  0  0  0  0  0  0  0  0  0  0  0
   12.7981   -5.8552   17.6650 H   0  0  0  0  0  0  0  0  0  0  0  0
    0.9244  -14.8780   15.4685 H   0  0  0  0  0  0  0  0  0  0  0  0
    2.2841  -15.2971   16.5556 H   0  0  0  0  0  0  0  0  0  0  0  0
   -0.2811  -15.3083   17.7933 H   0  0  0  0  0  0  0  0  0  0  0  0
   -1.0131  -14.4172   16.3509 H   0  0  0  0  0  0  0  0  0  0  0  0
   -0.4952  -12.7325   17.7186 H   0  0  0  0  0  0  0  0  0  0  0  0
    0.9015  -13.7401   18.3105 H   0  0  0  0  0  0  0  0  0  0  0  0
  1  2  1  0
  2  3  1  0
  3  4  1  0
  4  5  1  0
  5  6  2  0
  6  7  1  0
  7  8  2  0
  8  9  1  0
  9 10  2  0
  9 11  1  0
 11 12  1  0
 12 13  1  0
  2 14  1  0
 14 15  1  0
 15 16  1  0
 16 17  1  0
 17  2  1  0
 10  5  1  0
 13  8  1  0
  1 18  1  0
  1 19  1  0
  1 20  1  0
  3 21  1  0
  3 22  1  0
  6 23  1  0
  7 24  1  0
 10 25  1  0
 11 26  1  0
 11 27  1  0
 12 28  1  0
 13 29  1  0
 13 30  1  0
 14 31  1  0
 14 32  1  0
 15 33  1  0
 15 34  1  0
 16 35  1  0
 16 36  1  0
M  END
>  <Energy>  (1397) 
1999.4491409153204

>  <compound_id>  (1397) 
62422

>  <target_id>  (1397) 
1

>  <reference_id>  (1397) 
146

>  <inspiration_ids>  (1397) 
[28, 146]

>  <energy_score>  (1397) 
1912.297779651621

>  <distance_score>  (1397) 
10.75744000131671

>  <path>  (1397) 
/opt/xchem-fragalysis-2/maxwin/BulkDock/SCRATCH/511021/C62422-P146/C62422-P146.minimised.mol

>  <scratch_subdir>  (1397) 
/opt/xchem-fragalysis-2/maxwin/BulkDock/SCRATCH/511021/C62422-P146

>  <fragmenstein_runtime>  (1397) 
10.1608304977417

>  <fragmenstein_outcome>  (1397) 
too moved

>  <fragmenstein_mode>  (1397) 
expansion

>  <fragmenstein_error>  (1397) 


$$$$
C62423-P28
     RDKit          3D

 39 41  0  0  0  0  0  0  0  0999 V2000
   -3.8251  -15.0875   14.8408 C   0  0  0  0  0  0  0  0  0  0  0  0
   -3.2028  -14.0220   13.6017 C   0  0  0  0  0  0  0  0  0  0  0  0
   -0.9893  -13.4287   13.3221 C   0  0  0  0  0  0  0  0  0  0  0  0
   -0.2372  -12.0621   12.1084 O   0  0  0  0  0  0  0  0  0  0  0  0
    1.0831  -11.1492   11.4153 C   0  0  0  0  0  0  0  0  0  0  0  0
    2.4287  -11.4852   10.9385 C   0  0  0  0  0  0  0  0  0  0  0  0
    3.6591  -11.0773   10.0981 C   0  0  0  0  0  0  0  0  0  0  0  0
    3.7868   -9.7452    9.8480 C   0  0  0  0  0  0  0  0  0  0  0  0
    2.5663   -9.1155    9.9893 C   0  0  0  0  0  0  0  0  0  0  0  0
    1.3190   -9.9169   10.4842 C   0  0  0  0  0  0  0  0  0  0  0  0
    2.4708   -7.6414    9.6524 C   0  0  0  0  0  0  0  0  0  0  0  0
    3.7394   -6.9207    9.9179 N   0  0  0  0  0  0  0  0  0  0  0  0
    4.8251   -7.5502    9.1452 C   0  0  0  0  0  0  0  0  0  0  0  0
    5.0602   -9.0211    9.5356 C   0  0  0  0  0  0  0  0  0  0  0  0
   -4.8556  -13.2900   13.1177 C   0  0  0  0  0  0  0  0  0  0  0  0
   -5.5958  -13.9906   11.9818 C   0  0  0  0  0  0  0  0  0  0  0  0
   -4.9493  -15.3090   11.9755 C   0  0  0  0  0  0  0  0  0  0  0  0
   -3.6076  -14.8786   12.0528 O   0  0  0  0  0  0  0  0  0  0  0  0
   -4.9139  -15.1605   14.7557 H   0  0  0  0  0  0  0  0  0  0  0  0
   -3.6464  -14.7103   15.8502 H   0  0  0  0  0  0  0  0  0  0  0  0
   -3.5237  -16.1349   14.7668 H   0  0  0  0  0  0  0  0  0  0  0  0
   -0.0105  -13.7024   13.6232 H   0  0  0  0  0  0  0  0  0  0  0  0
   -0.7701  -14.1480   12.4458 H   0  0  0  0  0  0  0  0  0  0  0  0
    2.7883  -10.6468   11.6823 H   0  0  0  0  0  0  0  0  0  0  0  0
    4.4440  -11.8083    9.9429 H   0  0  0  0  0  0  0  0  0  0  0  0
    0.5765   -9.6670    9.6951 H   0  0  0  0  0  0  0  0  0  0  0  0
    1.6877   -7.1803   10.2639 H   0  0  0  0  0  0  0  0  0  0  0  0
    2.1783   -7.5244    8.6025 H   0  0  0  0  0  0  0  0  0  0  0  0
    3.9422   -7.0445   10.9115 H   0  0  0  0  0  0  0  0  0  0  0  0
    5.7523   -6.9842    9.2797 H   0  0  0  0  0  0  0  0  0  0  0  0
    4.5827   -7.4858    8.0764 H   0  0  0  0  0  0  0  0  0  0  0  0
    5.6911   -9.0516   10.4328 H   0  0  0  0  0  0  0  0  0  0  0  0
    5.5955   -9.5323    8.7277 H   0  0  0  0  0  0  0  0  0  0  0  0
   -5.5907  -13.4901   13.9019 H   0  0  0  0  0  0  0  0  0  0  0  0
   -4.9026  -12.2097   12.9721 H   0  0  0  0  0  0  0  0  0  0  0  0
   -5.4282  -13.4536   11.0421 H   0  0  0  0  0  0  0  0  0  0  0  0
   -6.6774  -14.0474   12.1400 H   0  0  0  0  0  0  0  0  0  0  0  0
   -5.1127  -15.8286   11.0298 H   0  0  0  0  0  0  0  0  0  0  0  0
   -5.2191  -15.9756   12.7958 H   0  0  0  0  0  0  0  0  0  0  0  0
  1  2  1  0
  2  3  1  0
  3  4  1  0
  4  5  1  0
  5  6  2  0
  6  7  1  0
  7  8  2  0
  8  9  1  0
  9 10  2  0
  9 11  1  0
 11 12  1  0
 12 13  1  0
 13 14  1  0
  2 15  1  0
 15 16  1  0
 16 17  1  0
 17 18  1  0
 18  2  1  0
 10  5  1  0
 14  8  1  0
  1 19  1  0
  1 20  1  0
  1 21  1  0
  3 22  1  0
  3 23  1  0
  6 24  1  0
  7 25  1  0
 10 26  1  0
 11 27  1  0
 11 28  1  0
 12 29  1  0
 13 30  1  0
 13 31  1  0
 14 32  1  0
 14 33  1  0
 15 34  1  0
 15 35  1  0
 16 36  1  0
 16 37  1  0
 17 38  1  0
 17 39  1  0
M  END
>  <Energy>  (1398) 
795.84359591799409

>  <compound_id>  (1398) 
62423

>  <target_id>  (1398) 
1

>  <reference_id>  (1398) 
28

>  <inspiration_ids>  (1398) 
[28, 146]

>  <energy_score>  (1398) 
701.5511870571917

>  <distance_score>  (1398) 
12.978907204647639

>  <path>  (1398) 
/opt/xchem-fragalysis-2/maxwin/BulkDock/SCRATCH/511021/C62423-P28/C62423-P28.minimised.mol

>  <scratch_subdir>  (1398) 
/opt/xchem-fragalysis-2/maxwin/BulkDock/SCRATCH/511021/C62423-P28

>  <fragmenstein_runtime>  (1398) 
12.166245460510254

>  <fragmenstein_outcome>  (1398) 
too moved

>  <fragmenstein_mode>  (1398) 
expansion

>  <fragmenstein_error>  (1398) 


$$$$
C62423-P146
     RDKit          3D

 39 41  0  0  0  0  0  0  0  0999 V2000
    0.1321  -13.3411   12.8226 C   0  0  0  0  0  0  0  0  0  0  0  0
    0.5513  -13.9042   11.5507 C   0  0  0  0  0  0  0  0  0  0  0  0
    1.2680  -12.2242   11.2585 C   0  0  0  0  0  0  0  0  0  0  0  0
    2.6942  -12.0471   10.5791 O   0  0  0  0  0  0  0  0  0  0  0  0
    3.4751  -10.8989   10.4158 C   0  0  0  0  0  0  0  0  0  0  0  0
    3.0324   -9.6024   10.2115 C   0  0  0  0  0  0  0  0  0  0  0  0
    3.9434   -8.5177   10.0820 C   0  0  0  0  0  0  0  0  0  0  0  0
    5.3301   -8.7133   10.1033 C   0  0  0  0  0  0  0  0  0  0  0  0
    5.8143  -10.0107   10.2885 C   0  0  0  0  0  0  0  0  0  0  0  0
    4.8828  -11.0806   10.3852 C   0  0  0  0  0  0  0  0  0  0  0  0
    7.3049  -10.2952   10.2897 C   0  0  0  0  0  0  0  0  0  0  0  0
    8.1781   -9.1126   10.2577 N   0  0  0  0  0  0  0  0  0  0  0  0
    7.6299   -8.1090    9.3373 C   0  0  0  0  0  0  0  0  0  0  0  0
    6.3023   -7.5781    9.8907 C   0  0  0  0  0  0  0  0  0  0  0  0
   -0.5885  -14.9071   11.0489 C   0  0  0  0  0  0  0  0  0  0  0  0
   -0.1050  -16.3428   10.6464 C   0  0  0  0  0  0  0  0  0  0  0  0
    1.3077  -16.1794   10.9157 C   0  0  0  0  0  0  0  0  0  0  0  0
    1.3752  -15.0150   11.8206 O   0  0  0  0  0  0  0  0  0  0  0  0
   -0.5149  -13.9771   13.3666 H   0  0  0  0  0  0  0  0  0  0  0  0
    1.0509  -13.1740   13.3642 H   0  0  0  0  0  0  0  0  0  0  0  0
   -0.3826  -12.3914   12.7246 H   0  0  0  0  0  0  0  0  0  0  0  0
    1.3883  -11.6303   12.1565 H   0  0  0  0  0  0  0  0  0  0  0  0
    0.4734  -11.5490   10.9091 H   0  0  0  0  0  0  0  0  0  0  0  0
    1.9707   -9.3968   10.1470 H   0  0  0  0  0  0  0  0  0  0  0  0
    3.5385   -7.5195    9.9303 H   0  0  0  0  0  0  0  0  0  0  0  0
    5.2682  -12.0971   10.4648 H   0  0  0  0  0  0  0  0  0  0  0  0
    7.5344  -10.9137    9.4133 H   0  0  0  0  0  0  0  0  0  0  0  0
    7.5564  -10.8847   11.1790 H   0  0  0  0  0  0  0  0  0  0  0  0
    8.2102   -8.7012   11.1885 H   0  0  0  0  0  0  0  0  0  0  0  0
    7.4895   -8.5515    8.3420 H   0  0  0  0  0  0  0  0  0  0  0  0
    8.3370   -7.2907    9.1977 H   0  0  0  0  0  0  0  0  0  0  0  0
    6.4590   -7.0888   10.8540 H   0  0  0  0  0  0  0  0  0  0  0  0
    5.8850   -6.8469    9.1896 H   0  0  0  0  0  0  0  0  0  0  0  0
   -0.9321  -15.1386   11.9857 H   0  0  0  0  0  0  0  0  0  0  0  0
   -1.5044  -14.6146   10.5721 H   0  0  0  0  0  0  0  0  0  0  0  0
   -0.2103  -16.8145    9.6751 H   0  0  0  0  0  0  0  0  0  0  0  0
   -0.4914  -17.1769   11.1981 H   0  0  0  0  0  0  0  0  0  0  0  0
    1.7133  -17.1047   11.3131 H   0  0  0  0  0  0  0  0  0  0  0  0
    1.9139  -16.0227   10.0151 H   0  0  0  0  0  0  0  0  0  0  0  0
  1  2  1  0
  2  3  1  0
  3  4  1  0
  4  5  1  0
  5  6  2  0
  6  7  1  0
  7  8  2  0
  8  9  1  0
  9 10  2  0
  9 11  1  0
 11 12  1  0
 12 13  1  0
 13 14  1  0
  2 15  1  0
 15 16  1  0
 16 17  1  0
 17 18  1  0
 18  2  1  0
 10  5  1  0
 14  8  1  0
  1 19  1  0
  1 20  1  0
  1 21  1  0
  3 22  1  0
  3 23  1  0
  6 24  1  0
  7 25  1  0
 10 26  1  0
 11 27  1  0
 11 28  1  0
 12 29  1  0
 13 30  1  0
 13 31  1  0
 14 32  1  0
 14 33  1  0
 15 34  1  0
 15 35  1  0
 16 36  1  0
 16 37  1  0
 17 38  1  0
 17 39  1  0
M  END
>  <Energy>  (1399) 
221.21662360207

>  <compound_id>  (1399) 
62423

>  <target_id>  (1399) 
1

>  <reference_id>  (1399) 
146

>  <inspiration_ids>  (1399) 
[28, 146]

>  <energy_score>  (1399) 
126.92421474126922

>  <distance_score>  (1399) 
12.888010661597233

>  <path>  (1399) 
/opt/xchem-fragalysis-2/maxwin/BulkDock/SCRATCH/511021/C62423-P146/C62423-P146.minimised.mol

>  <scratch_subdir>  (1399) 
/opt/xchem-fragalysis-2/maxwin/BulkDock/SCRATCH/511021/C62423-P146

>  <fragmenstein_runtime>  (1399) 
14.750951051712036

>  <fragmenstein_outcome>  (1399) 
too moved

>  <fragmenstein_mode>  (1399) 
expansion

>  <fragmenstein_error>  (1399) 


$$$$
C62424-P28
     RDKit          3D

 39 41  0  0  0  0  0  0  0  0999 V2000
    5.2259  -16.0237    6.7653 C   0  0  0  0  0  0  0  0  0  0  0  0
    4.9835  -15.6821    8.2448 C   0  0  0  0  0  0  0  0  0  0  0  0
    5.9812  -14.4782    8.6324 C   0  0  0  0  0  0  0  0  0  0  0  0
    7.4146  -14.7181    8.4571 O   0  0  0  0  0  0  0  0  0  0  0  0
    8.2672  -13.6562    8.7812 C   0  0  0  0  0  0  0  0  0  0  0  0
    9.3309  -13.9169    9.6557 C   0  0  0  0  0  0  0  0  0  0  0  0
   10.2136  -12.8976   10.0722 C   0  0  0  0  0  0  0  0  0  0  0  0
   10.0511  -11.5787    9.6336 C   0  0  0  0  0  0  0  0  0  0  0  0
    9.0161  -11.3102    8.7194 C   0  0  0  0  0  0  0  0  0  0  0  0
    8.1699  -12.3584    8.2545 C   0  0  0  0  0  0  0  0  0  0  0  0
    8.7863   -9.8832    8.2761 C   0  0  0  0  0  0  0  0  0  0  0  0
    9.2930   -8.9021    9.3311 C   0  0  0  0  0  0  0  0  0  0  0  0
   10.7023   -9.1701    9.5946 N   0  0  0  0  0  0  0  0  0  0  0  0
   10.9366  -10.4804   10.1808 C   0  0  0  0  0  0  0  0  0  0  0  0
    5.0481  -16.9387    9.1191 C   0  0  0  0  0  0  0  0  0  0  0  0
    3.7003  -17.6099    8.9154 C   0  0  0  0  0  0  0  0  0  0  0  0
    2.7712  -16.4310    8.7433 C   0  0  0  0  0  0  0  0  0  0  0  0
    3.5828  -15.2859    8.3835 O   0  0  0  0  0  0  0  0  0  0  0  0
    5.1066  -15.1290    6.1433 H   0  0  0  0  0  0  0  0  0  0  0  0
    6.2325  -16.4233    6.6067 H   0  0  0  0  0  0  0  0  0  0  0  0
    4.5011  -16.7504    6.3842 H   0  0  0  0  0  0  0  0  0  0  0  0
    5.8311  -14.2201    9.6791 H   0  0  0  0  0  0  0  0  0  0  0  0
    5.6850  -13.6043    8.0395 H   0  0  0  0  0  0  0  0  0  0  0  0
    9.4783  -14.9267   10.0269 H   0  0  0  0  0  0  0  0  0  0  0  0
   11.0190  -13.1491   10.7576 H   0  0  0  0  0  0  0  0  0  0  0  0
    7.3892  -12.1270    7.5344 H   0  0  0  0  0  0  0  0  0  0  0  0
    9.2983   -9.7234    7.3193 H   0  0  0  0  0  0  0  0  0  0  0  0
    7.7152   -9.7106    8.1181 H   0  0  0  0  0  0  0  0  0  0  0  0
    8.7033   -8.9801   10.2504 H   0  0  0  0  0  0  0  0  0  0  0  0
    9.1456   -7.8873    8.9584 H   0  0  0  0  0  0  0  0  0  0  0  0
   11.1110   -8.4215   10.1392 H   0  0  0  0  0  0  0  0  0  0  0  0
   10.7946  -10.4316   11.2646 H   0  0  0  0  0  0  0  0  0  0  0  0
   11.9836  -10.7504   10.0024 H   0  0  0  0  0  0  0  0  0  0  0  0
    5.8934  -17.5918    8.8846 H   0  0  0  0  0  0  0  0  0  0  0  0
    5.1152  -16.6558   10.1694 H   0  0  0  0  0  0  0  0  0  0  0  0
    3.7116  -18.2223    8.0071 H   0  0  0  0  0  0  0  0  0  0  0  0
    3.4107  -18.2590    9.7466 H   0  0  0  0  0  0  0  0  0  0  0  0
    2.0238  -16.6001    7.9629 H   0  0  0  0  0  0  0  0  0  0  0  0
    2.2532  -16.1976    9.6766 H   0  0  0  0  0  0  0  0  0  0  0  0
  1  2  1  0
  2  3  1  0
  3  4  1  0
  4  5  1  0
  5  6  2  0
  6  7  1  0
  7  8  2  0
  8  9  1  0
  9 10  2  0
  9 11  1  0
 11 12  1  0
 12 13  1  0
 13 14  1  0
  2 15  1  0
 15 16  1  0
 16 17  1  0
 17 18  1  0
 18  2  1  0
 10  5  1  0
 14  8  1  0
  1 19  1  0
  1 20  1  0
  1 21  1  0
  3 22  1  0
  3 23  1  0
  6 24  1  0
  7 25  1  0
 10 26  1  0
 11 27  1  0
 11 28  1  0
 12 29  1  0
 12 30  1  0
 13 31  1  0
 14 32  1  0
 14 33  1  0
 15 34  1  0
 15 35  1  0
 16 36  1  0
 16 37  1  0
 17 38  1  0
 17 39  1  0
M  END
>  <Energy>  (1400) 
76.792272049130659

>  <compound_id>  (1400) 
62424

>  <target_id>  (1400) 
1

>  <reference_id>  (1400) 
28

>  <inspiration_ids>  (1400) 
[28, 146]

>  <energy_score>  (1400) 
-26.13064135766365

>  <distance_score>  (1400) 
13.850643161954336

>  <path>  (1400) 
/opt/xchem-fragalysis-2/maxwin/BulkDock/SCRATCH/511021/C62424-P28/C62424-P28.minimised.mol

>  <scratch_subdir>  (1400) 
/opt/xchem-fragalysis-2/maxwin/BulkDock/SCRATCH/511021/C62424-P28

>  <fragmenstein_runtime>  (1400) 
15.738538265228271

>  <fragmenstein_outcome>  (1400) 
too moved

>  <fragmenstein_mode>  (1400) 
expansion

>  <fragmenstein_error>  (1400) 


$$$$
C62424-P146
     RDKit          3D

 39 41  0  0  0  0  0  0  0  0999 V2000
    7.8587  -19.8509   16.3124 C   0  0  0  0  0  0  0  0  0  0  0  0
    7.6421  -18.5202   15.5412 C   0  0  0  0  0  0  0  0  0  0  0  0
    9.0595  -17.6918   15.7839 C   0  0  0  0  0  0  0  0  0  0  0  0
    9.3211  -16.3961   15.1807 O   0  0  0  0  0  0  0  0  0  0  0  0
   10.1893  -15.4289   15.6851 C   0  0  0  0  0  0  0  0  0  0  0  0
   10.5983  -15.2991   17.0112 C   0  0  0  0  0  0  0  0  0  0  0  0
   11.2950  -14.1468   17.4521 C   0  0  0  0  0  0  0  0  0  0  0  0
   11.6545  -13.1140   16.5725 C   0  0  0  0  0  0  0  0  0  0  0  0
   11.3475  -13.2715   15.2174 C   0  0  0  0  0  0  0  0  0  0  0  0
   10.5869  -14.3959   14.8001 C   0  0  0  0  0  0  0  0  0  0  0  0
   11.8190  -12.2193   14.2379 C   0  0  0  0  0  0  0  0  0  0  0  0
   13.0133  -11.4420   14.8154 C   0  0  0  0  0  0  0  0  0  0  0  0
   12.6251  -10.8400   16.0909 N   0  0  0  0  0  0  0  0  0  0  0  0
   12.4050  -11.8998   17.0820 C   0  0  0  0  0  0  0  0  0  0  0  0
    6.3190  -17.8881   15.9843 C   0  0  0  0  0  0  0  0  0  0  0  0
    5.2420  -18.7102   15.2969 C   0  0  0  0  0  0  0  0  0  0  0  0
    5.9281  -19.1646   14.0283 C   0  0  0  0  0  0  0  0  0  0  0  0
    7.3526  -18.9055   14.1699 O   0  0  0  0  0  0  0  0  0  0  0  0
    7.9897  -19.6712   17.3847 H   0  0  0  0  0  0  0  0  0  0  0  0
    7.0318  -20.5562   16.1821 H   0  0  0  0  0  0  0  0  0  0  0  0
    8.7487  -20.3686   15.9359 H   0  0  0  0  0  0  0  0  0  0  0  0
    9.2055  -17.6324   16.8659 H   0  0  0  0  0  0  0  0  0  0  0  0
    9.8541  -18.3364   15.3872 H   0  0  0  0  0  0  0  0  0  0  0  0
   10.3304  -16.0434   17.7525 H   0  0  0  0  0  0  0  0  0  0  0  0
   11.5496  -14.0677   18.5071 H   0  0  0  0  0  0  0  0  0  0  0  0
   10.2849  -14.4597   13.7591 H   0  0  0  0  0  0  0  0  0  0  0  0
   10.9832  -11.5462   14.0143 H   0  0  0  0  0  0  0  0  0  0  0  0
   12.1289  -12.7001   13.3029 H   0  0  0  0  0  0  0  0  0  0  0  0
   13.3297  -10.6734   14.1123 H   0  0  0  0  0  0  0  0  0  0  0  0
   13.8813  -12.1014   14.9501 H   0  0  0  0  0  0  0  0  0  0  0  0
   13.3598  -10.2207   16.4328 H   0  0  0  0  0  0  0  0  0  0  0  0
   11.8360  -11.4799   17.9160 H   0  0  0  0  0  0  0  0  0  0  0  0
   13.3756  -12.2348   17.4686 H   0  0  0  0  0  0  0  0  0  0  0  0
    6.2549  -16.8662   15.6130 H   0  0  0  0  0  0  0  0  0  0  0  0
    6.1898  -17.8839   17.0696 H   0  0  0  0  0  0  0  0  0  0  0  0
    4.9617  -19.5738   15.9099 H   0  0  0  0  0  0  0  0  0  0  0  0
    4.3277  -18.1423   15.1046 H   0  0  0  0  0  0  0  0  0  0  0  0
    5.7835  -20.2336   13.8447 H   0  0  0  0  0  0  0  0  0  0  0  0
    5.5668  -18.6171   13.1553 H   0  0  0  0  0  0  0  0  0  0  0  0
  1  2  1  0
  2  3  1  0
  3  4  1  0
  4  5  1  0
  5  6  2  0
  6  7  1  0
  7  8  2  0
  8  9  1  0
  9 10  2  0
  9 11  1  0
 11 12  1  0
 12 13  1  0
 13 14  1  0
  2 15  1  0
 15 16  1  0
 16 17  1  0
 17 18  1  0
 18  2  1  0
 10  5  1  0
 14  8  1  0
  1 19  1  0
  1 20  1  0
  1 21  1  0
  3 22  1  0
  3 23  1  0
  6 24  1  0
  7 25  1  0
 10 26  1  0
 11 27  1  0
 11 28  1  0
 12 29  1  0
 12 30  1  0
 13 31  1  0
 14 32  1  0
 14 33  1  0
 15 34  1  0
 15 35  1  0
 16 36  1  0
 16 37  1  0
 17 38  1  0
 17 39  1  0
M  END
>  <Energy>  (1401) 
90.376101505851551

>  <compound_id>  (1401) 
62424

>  <target_id>  (1401) 
1

>  <reference_id>  (1401) 
146

>  <inspiration_ids>  (1401) 
[28, 146]

>  <energy_score>  (1401) 
-12.54681190093919

>  <distance_score>  (1401) 
13.839169166679268

>  <path>  (1401) 
/opt/xchem-fragalysis-2/maxwin/BulkDock/SCRATCH/511021/C62424-P146/C62424-P146.minimised.mol

>  <scratch_subdir>  (1401) 
/opt/xchem-fragalysis-2/maxwin/BulkDock/SCRATCH/511021/C62424-P146

>  <fragmenstein_runtime>  (1401) 
14.600667953491211

>  <fragmenstein_outcome>  (1401) 
too moved

>  <fragmenstein_mode>  (1401) 
expansion

>  <fragmenstein_error>  (1401) 


$$$$
C62425-P28
     RDKit          3D

 46 48  0  0  0  0  0  0  0  0999 V2000
    7.8408  -15.5044    7.6076 O   0  0  0  0  0  0  0  0  0  0  0  0
    7.0086  -14.7510    8.0322 C   0  0  0  0  0  0  0  0  0  0  0  0
    5.6502  -15.0010    8.4932 N   0  0  0  0  0  0  0  0  0  0  0  0
    4.8995  -16.2806    8.6771 C   0  0  0  0  0  0  0  0  0  0  0  0
    3.3757  -16.4654    8.2719 C   0  0  0  0  0  0  0  0  0  0  0  0
    3.1043  -15.6443    6.9967 C   0  0  0  0  0  0  0  0  0  0  0  0
    1.7743  -15.8234    6.5157 O   0  0  0  0  0  0  0  0  0  0  0  0
    3.0147  -17.9662    8.0903 C   0  0  0  0  0  0  0  0  0  0  0  0
    1.6415  -18.1303    8.7100 C   0  0  0  0  0  0  0  0  0  0  0  0
    1.7340  -17.1515    9.8470 C   0  0  0  0  0  0  0  0  0  0  0  0
    2.4720  -16.0247    9.3241 O   0  0  0  0  0  0  0  0  0  0  0  0
    7.5690  -13.3279    8.1838 C   0  0  0  0  0  0  0  0  0  0  0  0
    8.8835  -13.1804    8.6894 C   0  0  0  0  0  0  0  0  0  0  0  0
    9.5219  -11.9252    8.7863 C   0  0  0  0  0  0  0  0  0  0  0  0
    8.8767  -10.7518    8.3662 C   0  0  0  0  0  0  0  0  0  0  0  0
    7.5330  -10.8536    7.9219 C   0  0  0  0  0  0  0  0  0  0  0  0
    6.9151  -12.1505    7.7960 C   0  0  0  0  0  0  0  0  0  0  0  0
    6.6787   -9.6522    7.5277 C   0  0  0  0  0  0  0  0  0  0  0  0
    6.9706   -8.4015    8.2233 N   0  0  0  0  0  0  0  0  0  0  0  0
    8.0668   -7.6655    7.5971 C   0  0  0  0  0  0  0  0  0  0  0  0
    9.2664   -8.5345    7.2228 C   0  0  0  0  0  0  0  0  0  0  0  0
    9.6748   -9.4575    8.3703 C   0  0  0  0  0  0  0  0  0  0  0  0
    5.2621  -14.1399    8.8626 H   0  0  0  0  0  0  0  0  0  0  0  0
    5.4883  -17.0188    8.1184 H   0  0  0  0  0  0  0  0  0  0  0  0
    5.0102  -16.5250    9.7397 H   0  0  0  0  0  0  0  0  0  0  0  0
    3.7874  -15.9379    6.1931 H   0  0  0  0  0  0  0  0  0  0  0  0
    3.2332  -14.5731    7.1865 H   0  0  0  0  0  0  0  0  0  0  0  0
    1.1995  -15.4444    7.2050 H   0  0  0  0  0  0  0  0  0  0  0  0
    3.7260  -18.5913    8.6456 H   0  0  0  0  0  0  0  0  0  0  0  0
    3.0500  -18.2929    7.0462 H   0  0  0  0  0  0  0  0  0  0  0  0
    0.8662  -17.8247    8.0001 H   0  0  0  0  0  0  0  0  0  0  0  0
    1.4308  -19.1515    9.0373 H   0  0  0  0  0  0  0  0  0  0  0  0
    0.7600  -16.8206   10.2149 H   0  0  0  0  0  0  0  0  0  0  0  0
    2.3058  -17.5666   10.6833 H   0  0  0  0  0  0  0  0  0  0  0  0
    9.4362  -14.0712    8.9875 H   0  0  0  0  0  0  0  0  0  0  0  0
   10.5470  -11.8906    9.1498 H   0  0  0  0  0  0  0  0  0  0  0  0
    5.9076  -12.2194    7.3889 H   0  0  0  0  0  0  0  0  0  0  0  0
    5.6400   -9.8964    7.7766 H   0  0  0  0  0  0  0  0  0  0  0  0
    6.7010   -9.5259    6.4378 H   0  0  0  0  0  0  0  0  0  0  0  0
    7.1979   -8.6050    9.1947 H   0  0  0  0  0  0  0  0  0  0  0  0
    8.3679   -6.8774    8.2928 H   0  0  0  0  0  0  0  0  0  0  0  0
    7.6971   -7.1562    6.6994 H   0  0  0  0  0  0  0  0  0  0  0  0
   10.1001   -7.9010    6.9187 H   0  0  0  0  0  0  0  0  0  0  0  0
    9.0456   -9.1191    6.3193 H   0  0  0  0  0  0  0  0  0  0  0  0
   10.7344   -9.7062    8.2291 H   0  0  0  0  0  0  0  0  0  0  0  0
    9.5852   -8.9680    9.3471 H   0  0  0  0  0  0  0  0  0  0  0  0
  1  2  2  0
  2  3  1  0
  3  4  1  0
  4  5  1  0
  5  6  1  0
  6  7  1  0
  5  8  1  0
  8  9  1  0
  9 10  1  0
 10 11  1  0
  2 12  1  0
 12 13  2  0
 13 14  1  0
 14 15  2  0
 15 16  1  0
 16 17  2  0
 16 18  1  0
 18 19  1  0
 19 20  1  0
 20 21  1  0
 21 22  1  0
 11  5  1  0
 17 12  1  0
 22 15  1  0
  3 23  1  0
  4 24  1  0
  4 25  1  0
  6 26  1  0
  6 27  1  0
  7 28  1  0
  8 29  1  0
  8 30  1  0
  9 31  1  0
  9 32  1  0
 10 33  1  0
 10 34  1  0
 13 35  1  0
 14 36  1  0
 17 37  1  0
 18 38  1  0
 18 39  1  0
 19 40  1  0
 20 41  1  0
 20 42  1  0
 21 43  1  0
 21 44  1  0
 22 45  1  0
 22 46  1  0
M  END
>  <Energy>  (1402) 
85.767347740764279

>  <compound_id>  (1402) 
62425

>  <target_id>  (1402) 
1

>  <reference_id>  (1402) 
28

>  <inspiration_ids>  (1402) 
[28, 146]

>  <energy_score>  (1402) 
-45.39537541458998

>  <distance_score>  (1402) 
13.344053022567932

>  <path>  (1402) 
/opt/xchem-fragalysis-2/maxwin/BulkDock/SCRATCH/511021/C62425-P28/C62425-P28.minimised.mol

>  <scratch_subdir>  (1402) 
/opt/xchem-fragalysis-2/maxwin/BulkDock/SCRATCH/511021/C62425-P28

>  <fragmenstein_runtime>  (1402) 
23.99033784866333

>  <fragmenstein_outcome>  (1402) 
too moved

>  <fragmenstein_mode>  (1402) 
expansion

>  <fragmenstein_error>  (1402) 


$$$$
C62425-P146
     RDKit          3D

 46 48  0  0  0  0  0  0  0  0999 V2000
    1.6093  -14.0530   16.1832 O   0  0  0  0  0  0  0  0  0  0  0  0
    1.3218  -14.4515   17.2189 C   0  0  0  0  0  0  0  0  0  0  0  0
   -0.3946  -14.7911   17.5143 N   0  0  0  0  0  0  0  0  0  0  0  0
   -1.9069  -14.5122   16.4785 C   0  0  0  0  0  0  0  0  0  0  0  0
   -2.7860  -15.5528   14.8601 C   0  0  0  0  0  0  0  0  0  0  0  0
   -3.8347  -15.0900   13.0512 C   0  0  0  0  0  0  0  0  0  0  0  0
   -5.2353  -15.5209   12.6893 O   0  0  0  0  0  0  0  0  0  0  0  0
   -3.8333  -16.5537   15.9603 C   0  0  0  0  0  0  0  0  0  0  0  0
   -4.9216  -16.9302   14.8912 C   0  0  0  0  0  0  0  0  0  0  0  0
   -4.0730  -17.5912   13.9908 C   0  0  0  0  0  0  0  0  0  0  0  0
   -2.8305  -17.2389   14.5581 O   0  0  0  0  0  0  0  0  0  0  0  0
    2.8807  -14.6122   18.2787 C   0  0  0  0  0  0  0  0  0  0  0  0
    3.6217  -15.7117   18.1603 C   0  0  0  0  0  0  0  0  0  0  0  0
    4.9677  -15.4945   18.7053 C   0  0  0  0  0  0  0  0  0  0  0  0
    5.9797  -14.1639   19.4405 C   0  0  0  0  0  0  0  0  0  0  0  0
    5.5649  -12.9535   19.3136 C   0  0  0  0  0  0  0  0  0  0  0  0
    4.1240  -13.3666   18.7318 C   0  0  0  0  0  0  0  0  0  0  0  0
    6.5247  -11.7514   19.5071 C   0  0  0  0  0  0  0  0  0  0  0  0
    6.8302  -11.4680   20.9152 N   0  0  0  0  0  0  0  0  0  0  0  0
    8.0584  -12.1367   21.3467 C   0  0  0  0  0  0  0  0  0  0  0  0
    8.3101  -13.5267   20.7575 C   0  0  0  0  0  0  0  0  0  0  0  0
    7.0399  -14.3906   20.6778 C   0  0  0  0  0  0  0  0  0  0  0  0
   -0.4807  -15.2089   18.4184 H   0  0  0  0  0  0  0  0  0  0  0  0
   -2.1175  -13.5138   16.8102 H   0  0  0  0  0  0  0  0  0  0  0  0
   -2.6116  -14.9150   17.1558 H   0  0  0  0  0  0  0  0  0  0  0  0
   -3.8977  -14.0755   13.0079 H   0  0  0  0  0  0  0  0  0  0  0  0
   -3.4290  -15.4001   12.0629 H   0  0  0  0  0  0  0  0  0  0  0  0
   -5.4164  -15.0402   11.8571 H   0  0  0  0  0  0  0  0  0  0  0  0
   -4.1156  -16.1062   16.9047 H   0  0  0  0  0  0  0  0  0  0  0  0
   -3.4298  -17.4628   16.4472 H   0  0  0  0  0  0  0  0  0  0  0  0
   -5.7909  -16.6898   15.5371 H   0  0  0  0  0  0  0  0  0  0  0  0
   -5.7260  -16.9117   14.1204 H   0  0  0  0  0  0  0  0  0  0  0  0
   -4.0815  -17.0444   13.1331 H   0  0  0  0  0  0  0  0  0  0  0  0
   -4.3866  -18.5966   13.7027 H   0  0  0  0  0  0  0  0  0  0  0  0
    3.2916  -16.6600   17.7707 H   0  0  0  0  0  0  0  0  0  0  0  0
    5.4256  -16.5074   18.9124 H   0  0  0  0  0  0  0  0  0  0  0  0
    3.9325  -13.4034   19.8956 H   0  0  0  0  0  0  0  0  0  0  0  0
    6.2789  -10.7965   19.0376 H   0  0  0  0  0  0  0  0  0  0  0  0
    7.4681  -11.8808   18.9831 H   0  0  0  0  0  0  0  0  0  0  0  0
    6.9733  -10.4634   21.0161 H   0  0  0  0  0  0  0  0  0  0  0  0
    8.0236  -12.2109   22.4399 H   0  0  0  0  0  0  0  0  0  0  0  0
    8.9216  -11.5016   21.1111 H   0  0  0  0  0  0  0  0  0  0  0  0
    9.0148  -14.0326   21.4313 H   0  0  0  0  0  0  0  0  0  0  0  0
    8.8305  -13.4685   19.8004 H   0  0  0  0  0  0  0  0  0  0  0  0
    6.4771  -14.2108   21.6060 H   0  0  0  0  0  0  0  0  0  0  0  0
    7.3301  -15.4502   20.7355 H   0  0  0  0  0  0  0  0  0  0  0  0
  1  2  2  0
  2  3  1  0
  3  4  1  0
  4  5  1  0
  5  6  1  0
  6  7  1  0
  5  8  1  0
  8  9  1  0
  9 10  1  0
 10 11  1  0
  2 12  1  0
 12 13  2  0
 13 14  1  0
 14 15  2  0
 15 16  1  0
 16 17  2  0
 16 18  1  0
 18 19  1  0
 19 20  1  0
 20 21  1  0
 21 22  1  0
 11  5  1  0
 17 12  1  0
 22 15  1  0
  3 23  1  0
  4 24  1  0
  4 25  1  0
  6 26  1  0
  6 27  1  0
  7 28  1  0
  8 29  1  0
  8 30  1  0
  9 31  1  0
  9 32  1  0
 10 33  1  0
 10 34  1  0
 13 35  1  0
 14 36  1  0
 17 37  1  0
 18 38  1  0
 18 39  1  0
 19 40  1  0
 20 41  1  0
 20 42  1  0
 21 43  1  0
 21 44  1  0
 22 45  1  0
 22 46  1  0
M  END
>  <Energy>  (1403) 
917.75371249962063

>  <compound_id>  (1403) 
62425

>  <target_id>  (1403) 
1

>  <reference_id>  (1403) 
146

>  <inspiration_ids>  (1403) 
[28, 146]

>  <energy_score>  (1403) 
786.5909893442596

>  <distance_score>  (1403) 
13.389117682107216

>  <path>  (1403) 
/opt/xchem-fragalysis-2/maxwin/BulkDock/SCRATCH/511021/C62425-P146/C62425-P146.minimised.mol

>  <scratch_subdir>  (1403) 
/opt/xchem-fragalysis-2/maxwin/BulkDock/SCRATCH/511021/C62425-P146

>  <fragmenstein_runtime>  (1403) 
19.783235788345337

>  <fragmenstein_outcome>  (1403) 
too moved

>  <fragmenstein_mode>  (1403) 
expansion

>  <fragmenstein_error>  (1403) 


$$$$
C62426-P28
     RDKit          3D

 46 48  0  0  0  0  0  0  0  0999 V2000
    7.1535   -9.2262   13.9193 O   0  0  0  0  0  0  0  0  0  0  0  0
    6.6401   -8.2088   14.1352 C   0  0  0  0  0  0  0  0  0  0  0  0
    4.7813   -8.4317   13.9186 N   0  0  0  0  0  0  0  0  0  0  0  0
    3.6991  -10.0072   13.5744 C   0  0  0  0  0  0  0  0  0  0  0  0
    1.9547  -10.8223   12.6720 C   0  0  0  0  0  0  0  0  0  0  0  0
    1.3088  -12.3936   13.7075 C   0  0  0  0  0  0  0  0  0  0  0  0
    0.2103  -13.5065   13.3402 O   0  0  0  0  0  0  0  0  0  0  0  0
    1.5584  -10.5410   11.2410 C   0  0  0  0  0  0  0  0  0  0  0  0
    0.0656  -11.1038   11.1229 C   0  0  0  0  0  0  0  0  0  0  0  0
    0.3026  -12.4289   11.4922 C   0  0  0  0  0  0  0  0  0  0  0  0
    0.5526  -11.6897   12.6455 O   0  0  0  0  0  0  0  0  0  0  0  0
    8.0717   -6.8801   14.7982 C   0  0  0  0  0  0  0  0  0  0  0  0
    8.3709   -5.4387   14.8037 C   0  0  0  0  0  0  0  0  0  0  0  0
    9.3287   -3.9256   15.0441 C   0  0  0  0  0  0  0  0  0  0  0  0
   10.7070   -4.0979   15.0746 C   0  0  0  0  0  0  0  0  0  0  0  0
   11.0268   -5.5902   15.3112 C   0  0  0  0  0  0  0  0  0  0  0  0
    9.7203   -7.0237   15.2593 C   0  0  0  0  0  0  0  0  0  0  0  0
   12.3388   -5.5494   16.1014 C   0  0  0  0  0  0  0  0  0  0  0  0
   13.6699   -4.8316   15.7261 C   0  0  0  0  0  0  0  0  0  0  0  0
   13.7821   -3.3686   15.3472 C   0  0  0  0  0  0  0  0  0  0  0  0
   12.7613   -2.8834   14.4545 N   0  0  0  0  0  0  0  0  0  0  0  0
   11.5089   -2.8490   15.1714 C   0  0  0  0  0  0  0  0  0  0  0  0
    4.3575   -7.5191   14.0233 H   0  0  0  0  0  0  0  0  0  0  0  0
    3.5822  -10.3116   14.6078 H   0  0  0  0  0  0  0  0  0  0  0  0
    4.6458  -10.5779   13.4794 H   0  0  0  0  0  0  0  0  0  0  0  0
    1.7791  -13.2603   13.2639 H   0  0  0  0  0  0  0  0  0  0  0  0
    1.7403  -12.4287   14.7019 H   0  0  0  0  0  0  0  0  0  0  0  0
   -0.5598  -13.0372   13.6938 H   0  0  0  0  0  0  0  0  0  0  0  0
    1.4858   -9.4965   11.0285 H   0  0  0  0  0  0  0  0  0  0  0  0
    2.3440  -10.9637   10.6045 H   0  0  0  0  0  0  0  0  0  0  0  0
   -0.7388  -10.7914   11.8321 H   0  0  0  0  0  0  0  0  0  0  0  0
   -0.4403  -10.8075   10.2307 H   0  0  0  0  0  0  0  0  0  0  0  0
    1.1986  -12.9517   11.2269 H   0  0  0  0  0  0  0  0  0  0  0  0
   -0.5278  -13.1209   11.5118 H   0  0  0  0  0  0  0  0  0  0  0  0
    8.5296   -5.2797   13.7957 H   0  0  0  0  0  0  0  0  0  0  0  0
    8.7852   -2.9785   15.0145 H   0  0  0  0  0  0  0  0  0  0  0  0
    9.9383   -8.0912   15.4534 H   0  0  0  0  0  0  0  0  0  0  0  0
   12.0613   -5.0828   17.0512 H   0  0  0  0  0  0  0  0  0  0  0  0
   12.5430   -6.5901   16.2438 H   0  0  0  0  0  0  0  0  0  0  0  0
   14.2234   -5.4289   15.0094 H   0  0  0  0  0  0  0  0  0  0  0  0
   14.2933   -4.8591   16.6285 H   0  0  0  0  0  0  0  0  0  0  0  0
   13.8220   -2.7477   16.2528 H   0  0  0  0  0  0  0  0  0  0  0  0
   14.7563   -3.2137   14.8665 H   0  0  0  0  0  0  0  0  0  0  0  0
   12.6793   -3.4870   13.6413 H   0  0  0  0  0  0  0  0  0  0  0  0
   10.9378   -2.0323   14.7121 H   0  0  0  0  0  0  0  0  0  0  0  0
   11.6178   -2.5557   16.2240 H   0  0  0  0  0  0  0  0  0  0  0  0
  1  2  2  0
  2  3  1  0
  3  4  1  0
  4  5  1  0
  5  6  1  0
  6  7  1  0
  5  8  1  0
  8  9  1  0
  9 10  1  0
 10 11  1  0
  2 12  1  0
 12 13  2  0
 13 14  1  0
 14 15  2  0
 15 16  1  0
 16 17  2  0
 16 18  1  0
 18 19  1  0
 19 20  1  0
 20 21  1  0
 21 22  1  0
 11  5  1  0
 17 12  1  0
 22 15  1  0
  3 23  1  0
  4 24  1  0
  4 25  1  0
  6 26  1  0
  6 27  1  0
  7 28  1  0
  8 29  1  0
  8 30  1  0
  9 31  1  0
  9 32  1  0
 10 33  1  0
 10 34  1  0
 13 35  1  0
 14 36  1  0
 17 37  1  0
 18 38  1  0
 18 39  1  0
 19 40  1  0
 19 41  1  0
 20 42  1  0
 20 43  1  0
 21 44  1  0
 22 45  1  0
 22 46  1  0
M  END
>  <Energy>  (1404) 
1132.6888954671938

>  <compound_id>  (1404) 
62426

>  <target_id>  (1404) 
1

>  <reference_id>  (1404) 
28

>  <inspiration_ids>  (1404) 
[28, 146]

>  <energy_score>  (1404) 
1007.1546313784145

>  <distance_score>  (1404) 
10.711113639559448

>  <path>  (1404) 
/opt/xchem-fragalysis-2/maxwin/BulkDock/SCRATCH/511021/C62426-P28/C62426-P28.minimised.mol

>  <scratch_subdir>  (1404) 
/opt/xchem-fragalysis-2/maxwin/BulkDock/SCRATCH/511021/C62426-P28

>  <fragmenstein_runtime>  (1404) 
24.49986982345581

>  <fragmenstein_outcome>  (1404) 
too moved

>  <fragmenstein_mode>  (1404) 
expansion

>  <fragmenstein_error>  (1404) 


$$$$
C62426-P146
     RDKit          3D

 46 48  0  0  0  0  0  0  0  0999 V2000
    1.4660  -12.2679   14.2408 O   0  0  0  0  0  0  0  0  0  0  0  0
    1.9862  -11.8444   13.3396 C   0  0  0  0  0  0  0  0  0  0  0  0
    1.3464  -12.7063   11.7577 N   0  0  0  0  0  0  0  0  0  0  0  0
    0.2463  -14.1273   11.5103 C   0  0  0  0  0  0  0  0  0  0  0  0
    0.8599  -15.9182   10.7220 C   0  0  0  0  0  0  0  0  0  0  0  0
    1.9248  -17.2429   11.0475 C   0  0  0  0  0  0  0  0  0  0  0  0
    1.3630  -18.4728   11.5645 O   0  0  0  0  0  0  0  0  0  0  0  0
   -0.4084  -16.6940   10.4689 C   0  0  0  0  0  0  0  0  0  0  0  0
   -0.3470  -17.6943    9.3072 C   0  0  0  0  0  0  0  0  0  0  0  0
    0.8181  -17.2233    8.4908 C   0  0  0  0  0  0  0  0  0  0  0  0
    1.3899  -16.0689    9.2000 O   0  0  0  0  0  0  0  0  0  0  0  0
    3.6376  -10.5156   13.6589 C   0  0  0  0  0  0  0  0  0  0  0  0
    4.8114  -11.0704   14.1390 C   0  0  0  0  0  0  0  0  0  0  0  0
    6.2451  -10.6735   13.7613 C   0  0  0  0  0  0  0  0  0  0  0  0
    7.5543   -9.3148   13.4942 C   0  0  0  0  0  0  0  0  0  0  0  0
    6.6143   -8.5707   13.9808 C   0  0  0  0  0  0  0  0  0  0  0  0
    4.7590   -9.0887   13.7257 C   0  0  0  0  0  0  0  0  0  0  0  0
    8.1279   -9.9672   14.5981 C   0  0  0  0  0  0  0  0  0  0  0  0
    9.6954  -10.4224   14.5087 C   0  0  0  0  0  0  0  0  0  0  0  0
   10.1487   -9.6195   15.5734 C   0  0  0  0  0  0  0  0  0  0  0  0
    9.4865   -8.2993   15.0520 N   0  0  0  0  0  0  0  0  0  0  0  0
    8.2579   -7.9793   14.2374 C   0  0  0  0  0  0  0  0  0  0  0  0
    1.7659  -12.2507   10.9721 H   0  0  0  0  0  0  0  0  0  0  0  0
    0.0488  -14.3901   12.5399 H   0  0  0  0  0  0  0  0  0  0  0  0
   -0.6620  -13.8474   11.0436 H   0  0  0  0  0  0  0  0  0  0  0  0
    2.3054  -17.6379   10.1035 H   0  0  0  0  0  0  0  0  0  0  0  0
    2.9571  -17.1405   11.3760 H   0  0  0  0  0  0  0  0  0  0  0  0
    1.8019  -18.5452   12.4396 H   0  0  0  0  0  0  0  0  0  0  0  0
   -1.3136  -16.0841   10.4786 H   0  0  0  0  0  0  0  0  0  0  0  0
   -0.3382  -17.2901   11.3251 H   0  0  0  0  0  0  0  0  0  0  0  0
   -1.2800  -17.7083    8.7320 H   0  0  0  0  0  0  0  0  0  0  0  0
   -0.1955  -18.7278    9.6367 H   0  0  0  0  0  0  0  0  0  0  0  0
    1.5784  -17.9962    8.3367 H   0  0  0  0  0  0  0  0  0  0  0  0
    0.5305  -16.8991    7.4843 H   0  0  0  0  0  0  0  0  0  0  0  0
    4.8857  -12.0285   14.6211 H   0  0  0  0  0  0  0  0  0  0  0  0
    6.4799  -11.7403   13.4346 H   0  0  0  0  0  0  0  0  0  0  0  0
    4.2810   -8.1229   13.4905 H   0  0  0  0  0  0  0  0  0  0  0  0
    8.0609  -10.2203   15.6668 H   0  0  0  0  0  0  0  0  0  0  0  0
    8.2091  -10.9174   14.1155 H   0  0  0  0  0  0  0  0  0  0  0  0
   10.1918  -10.4075   13.5419 H   0  0  0  0  0  0  0  0  0  0  0  0
    9.8819  -11.4346   14.8993 H   0  0  0  0  0  0  0  0  0  0  0  0
    9.7576  -10.0463   16.5111 H   0  0  0  0  0  0  0  0  0  0  0  0
   11.2287   -9.6847   15.7662 H   0  0  0  0  0  0  0  0  0  0  0  0
    9.6749   -7.4144   15.5352 H   0  0  0  0  0  0  0  0  0  0  0  0
    7.7256   -7.3114   14.9300 H   0  0  0  0  0  0  0  0  0  0  0  0
    8.2728   -7.4865   13.2685 H   0  0  0  0  0  0  0  0  0  0  0  0
  1  2  2  0
  2  3  1  0
  3  4  1  0
  4  5  1  0
  5  6  1  0
  6  7  1  0
  5  8  1  0
  8  9  1  0
  9 10  1  0
 10 11  1  0
  2 12  1  0
 12 13  2  0
 13 14  1  0
 14 15  2  0
 15 16  1  0
 16 17  2  0
 16 18  1  0
 18 19  1  0
 19 20  1  0
 20 21  1  0
 21 22  1  0
 11  5  1  0
 17 12  1  0
 22 15  1  0
  3 23  1  0
  4 24  1  0
  4 25  1  0
  6 26  1  0
  6 27  1  0
  7 28  1  0
  8 29  1  0
  8 30  1  0
  9 31  1  0
  9 32  1  0
 10 33  1  0
 10 34  1  0
 13 35  1  0
 14 36  1  0
 17 37  1  0
 18 38  1  0
 18 39  1  0
 19 40  1  0
 19 41  1  0
 20 42  1  0
 20 43  1  0
 21 44  1  0
 22 45  1  0
 22 46  1  0
M  END
>  <Energy>  (1405) 
1490.7241895378268

>  <compound_id>  (1405) 
62426

>  <target_id>  (1405) 
1

>  <reference_id>  (1405) 
146

>  <inspiration_ids>  (1405) 
[28, 146]

>  <energy_score>  (1405) 
1365.1899254490504

>  <distance_score>  (1405) 
11.641819011506582

>  <path>  (1405) 
/opt/xchem-fragalysis-2/maxwin/BulkDock/SCRATCH/511021/C62426-P146/C62426-P146.minimised.mol

>  <scratch_subdir>  (1405) 
/opt/xchem-fragalysis-2/maxwin/BulkDock/SCRATCH/511021/C62426-P146

>  <fragmenstein_runtime>  (1405) 
32.33730697631836

>  <fragmenstein_outcome>  (1405) 
too moved

>  <fragmenstein_mode>  (1405) 
expansion

>  <fragmenstein_error>  (1405) 


$$$$
C62430-P28
     RDKit          3D

 39 41  0  0  0  0  0  0  0  0999 V2000
   10.7171  -13.2480   11.2728 O   0  0  0  0  0  0  0  0  0  0  0  0
    9.5547  -12.9906   11.4396 C   0  0  0  0  0  0  0  0  0  0  0  0
    8.3601  -13.2908   10.5869 N   0  0  0  0  0  0  0  0  0  0  0  0
    8.2579  -13.9130    9.2179 C   0  0  0  0  0  0  0  0  0  0  0  0
    7.2180  -15.0470    8.8202 C   0  0  0  0  0  0  0  0  0  0  0  0
    7.6778  -16.2077    9.3997 F   0  0  0  0  0  0  0  0  0  0  0  0
    7.0869  -15.3691    7.3375 C   0  0  0  0  0  0  0  0  0  0  0  0
    5.7858  -16.1614    7.2699 C   0  0  0  0  0  0  0  0  0  0  0  0
    4.9060  -15.4691    8.1501 O   0  0  0  0  0  0  0  0  0  0  0  0
    5.7445  -14.8878    9.1715 C   0  0  0  0  0  0  0  0  0  0  0  0
    9.3102  -12.0915   12.7341 C   0  0  0  0  0  0  0  0  0  0  0  0
   10.4554  -11.7254   13.7321 C   0  0  0  0  0  0  0  0  0  0  0  0
   10.6707  -10.5720   14.7248 C   0  0  0  0  0  0  0  0  0  0  0  0
    9.7477   -9.5365   14.6539 C   0  0  0  0  0  0  0  0  0  0  0  0
    8.3151  -10.1614   13.4318 C   0  0  0  0  0  0  0  0  0  0  0  0
    8.1508  -11.3460   12.7132 C   0  0  0  0  0  0  0  0  0  0  0  0
    7.9310   -8.6571   11.9639 C   0  0  0  0  0  0  0  0  0  0  0  0
    9.5411   -7.5464   11.4167 N   0  0  0  0  0  0  0  0  0  0  0  0
   11.1706   -6.4723   12.4522 C   0  0  0  0  0  0  0  0  0  0  0  0
   10.0192   -7.3740   14.4677 C   0  0  0  0  0  0  0  0  0  0  0  0
    7.5239  -13.0006   11.0726 H   0  0  0  0  0  0  0  0  0  0  0  0
    8.0748  -13.0562    8.5590 H   0  0  0  0  0  0  0  0  0  0  0  0
    9.2637  -14.2845    8.9911 H   0  0  0  0  0  0  0  0  0  0  0  0
    7.9289  -15.9483    6.9484 H   0  0  0  0  0  0  0  0  0  0  0  0
    6.9884  -14.4441    6.7574 H   0  0  0  0  0  0  0  0  0  0  0  0
    5.9163  -17.1871    7.6320 H   0  0  0  0  0  0  0  0  0  0  0  0
    5.3633  -16.1876    6.2620 H   0  0  0  0  0  0  0  0  0  0  0  0
    5.5496  -15.5094   10.0316 H   0  0  0  0  0  0  0  0  0  0  0  0
    5.4542  -13.8428    9.3017 H   0  0  0  0  0  0  0  0  0  0  0  0
   11.3157  -12.4046   13.6549 H   0  0  0  0  0  0  0  0  0  0  0  0
   11.5966  -10.5337   15.2860 H   0  0  0  0  0  0  0  0  0  0  0  0
    7.3590  -11.3943   11.9874 H   0  0  0  0  0  0  0  0  0  0  0  0
    7.7086   -9.2040   11.0374 H   0  0  0  0  0  0  0  0  0  0  0  0
    7.1747   -7.9546   12.3400 H   0  0  0  0  0  0  0  0  0  0  0  0
    9.2829   -6.9654   10.6086 H   0  0  0  0  0  0  0  0  0  0  0  0
   11.9296   -6.9131   11.5955 H   0  0  0  0  0  0  0  0  0  0  0  0
   11.2654   -5.2818   11.9124 H   0  0  0  0  0  0  0  0  0  0  0  0
    8.8978   -6.9815   14.6459 H   0  0  0  0  0  0  0  0  0  0  0  0
   10.1534   -6.9887   15.4854 H   0  0  0  0  0  0  0  0  0  0  0  0
  1  2  2  0
  2  3  1  0
  3  4  1  0
  4  5  1  0
  5  6  1  0
  5  7  1  0
  7  8  1  0
  8  9  1  0
  9 10  1  0
  2 11  1  0
 11 12  2  0
 12 13  1  0
 13 14  2  0
 14 15  1  0
 15 16  2  0
 15 17  1  0
 17 18  1  0
 18 19  1  0
 19 20  1  0
 10  5  1  0
 16 11  1  0
 20 14  1  0
  3 21  1  0
  4 22  1  0
  4 23  1  0
  7 24  1  0
  7 25  1  0
  8 26  1  0
  8 27  1  0
 10 28  1  0
 10 29  1  0
 12 30  1  0
 13 31  1  0
 16 32  1  0
 17 33  1  0
 17 34  1  0
 18 35  1  0
 19 36  1  0
 19 37  1  0
 20 38  1  0
 20 39  1  0
M  END
>  <Energy>  (1406) 
1193.5341067649929

>  <compound_id>  (1406) 
62430

>  <target_id>  (1406) 
1

>  <reference_id>  (1406) 
28

>  <inspiration_ids>  (1406) 
[28, 146]

>  <energy_score>  (1406) 
1101.3362187608113

>  <distance_score>  (1406) 
13.153994685830954

>  <path>  (1406) 
/opt/xchem-fragalysis-2/maxwin/BulkDock/SCRATCH/511021/C62430-P28/C62430-P28.minimised.mol

>  <scratch_subdir>  (1406) 
/opt/xchem-fragalysis-2/maxwin/BulkDock/SCRATCH/511021/C62430-P28

>  <fragmenstein_runtime>  (1406) 
13.801998376846313

>  <fragmenstein_outcome>  (1406) 
too moved

>  <fragmenstein_mode>  (1406) 
expansion

>  <fragmenstein_error>  (1406) 


$$$$
C62430-P146
     RDKit          3D

 39 41  0  0  0  0  0  0  0  0999 V2000
   10.6982  -18.0929   15.7363 O   0  0  0  0  0  0  0  0  0  0  0  0
    9.8441  -17.2718   15.5353 C   0  0  0  0  0  0  0  0  0  0  0  0
    8.4204  -17.4327   15.2467 N   0  0  0  0  0  0  0  0  0  0  0  0
    7.5973  -18.6676   15.0125 C   0  0  0  0  0  0  0  0  0  0  0  0
    6.0739  -18.6523   14.5503 C   0  0  0  0  0  0  0  0  0  0  0  0
    5.9351  -17.7845   13.5090 F   0  0  0  0  0  0  0  0  0  0  0  0
    5.5497  -20.0079   14.0647 C   0  0  0  0  0  0  0  0  0  0  0  0
    4.0389  -19.8490   14.1487 C   0  0  0  0  0  0  0  0  0  0  0  0
    3.8052  -19.0504   15.3121 O   0  0  0  0  0  0  0  0  0  0  0  0
    5.0293  -18.3524   15.6225 C   0  0  0  0  0  0  0  0  0  0  0  0
   10.4424  -15.8134   15.6464 C   0  0  0  0  0  0  0  0  0  0  0  0
   11.5217  -15.6340   16.5513 C   0  0  0  0  0  0  0  0  0  0  0  0
   12.1909  -14.4041   16.7376 C   0  0  0  0  0  0  0  0  0  0  0  0
   11.8043  -13.2900   16.0091 C   0  0  0  0  0  0  0  0  0  0  0  0
   10.7642  -13.4152   15.0797 C   0  0  0  0  0  0  0  0  0  0  0  0
   10.1084  -14.6668   14.9005 C   0  0  0  0  0  0  0  0  0  0  0  0
   10.4350  -12.1789   14.2683 C   0  0  0  0  0  0  0  0  0  0  0  0
   10.3301  -10.9669   15.0873 N   0  0  0  0  0  0  0  0  0  0  0  0
   11.3070  -10.8986   16.1876 C   0  0  0  0  0  0  0  0  0  0  0  0
   12.4346  -11.9333   16.1654 C   0  0  0  0  0  0  0  0  0  0  0  0
    8.0152  -16.5177   15.0485 H   0  0  0  0  0  0  0  0  0  0  0  0
    7.6944  -19.2678   15.9247 H   0  0  0  0  0  0  0  0  0  0  0  0
    8.1599  -19.2051   14.2388 H   0  0  0  0  0  0  0  0  0  0  0  0
    5.8735  -20.2538   13.0496 H   0  0  0  0  0  0  0  0  0  0  0  0
    5.8758  -20.8035   14.7454 H   0  0  0  0  0  0  0  0  0  0  0  0
    3.6506  -19.3216   13.2731 H   0  0  0  0  0  0  0  0  0  0  0  0
    3.5199  -20.8064   14.2445 H   0  0  0  0  0  0  0  0  0  0  0  0
    4.8202  -17.2879   15.7364 H   0  0  0  0  0  0  0  0  0  0  0  0
    5.3610  -18.7618   16.5717 H   0  0  0  0  0  0  0  0  0  0  0  0
   11.8591  -16.4874   17.1409 H   0  0  0  0  0  0  0  0  0  0  0  0
   13.0034  -14.3435   17.4573 H   0  0  0  0  0  0  0  0  0  0  0  0
    9.3329  -14.6926   14.1583 H   0  0  0  0  0  0  0  0  0  0  0  0
   11.2224  -12.0394   13.5167 H   0  0  0  0  0  0  0  0  0  0  0  0
    9.5054  -12.3207   13.7076 H   0  0  0  0  0  0  0  0  0  0  0  0
    9.3781  -10.9402   15.4701 H   0  0  0  0  0  0  0  0  0  0  0  0
   10.7515  -11.0208   17.1261 H   0  0  0  0  0  0  0  0  0  0  0  0
   11.7650   -9.9107   16.2179 H   0  0  0  0  0  0  0  0  0  0  0  0
   13.0058  -11.8741   17.0986 H   0  0  0  0  0  0  0  0  0  0  0  0
   13.1248  -11.7498   15.3335 H   0  0  0  0  0  0  0  0  0  0  0  0
  1  2  2  0
  2  3  1  0
  3  4  1  0
  4  5  1  0
  5  6  1  0
  5  7  1  0
  7  8  1  0
  8  9  1  0
  9 10  1  0
  2 11  1  0
 11 12  2  0
 12 13  1  0
 13 14  2  0
 14 15  1  0
 15 16  2  0
 15 17  1  0
 17 18  1  0
 18 19  1  0
 19 20  1  0
 10  5  1  0
 16 11  1  0
 20 14  1  0
  3 21  1  0
  4 22  1  0
  4 23  1  0
  7 24  1  0
  7 25  1  0
  8 26  1  0
  8 27  1  0
 10 28  1  0
 10 29  1  0
 12 30  1  0
 13 31  1  0
 16 32  1  0
 17 33  1  0
 17 34  1  0
 18 35  1  0
 19 36  1  0
 19 37  1  0
 20 38  1  0
 20 39  1  0
M  END
>  <Energy>  (1407) 
89.023913660938277

>  <compound_id>  (1407) 
62430

>  <target_id>  (1407) 
1

>  <reference_id>  (1407) 
146

>  <inspiration_ids>  (1407) 
[28, 146]

>  <energy_score>  (1407) 
-3.173974343266252

>  <distance_score>  (1407) 
12.98767397644031

>  <path>  (1407) 
/opt/xchem-fragalysis-2/maxwin/BulkDock/SCRATCH/511021/C62430-P146/C62430-P146.minimised.mol

>  <scratch_subdir>  (1407) 
/opt/xchem-fragalysis-2/maxwin/BulkDock/SCRATCH/511021/C62430-P146

>  <fragmenstein_runtime>  (1407) 
25.88398575782776

>  <fragmenstein_outcome>  (1407) 
too moved

>  <fragmenstein_mode>  (1407) 
expansion

>  <fragmenstein_error>  (1407) 


$$$$
C62432-P28
     RDKit          3D

 45 47  0  0  0  0  0  0  0  0999 V2000
    3.2804  -11.8864   17.9697 O   0  0  0  0  0  0  0  0  0  0  0  0
    2.8517  -11.4118   17.0037 C   0  0  0  0  0  0  0  0  0  0  0  0
    1.6043  -12.5114   16.0589 N   0  0  0  0  0  0  0  0  0  0  0  0
    0.8074  -14.0757   16.4915 C   0  0  0  0  0  0  0  0  0  0  0  0
   -1.3323  -14.1396   16.7352 C   0  0  0  0  0  0  0  0  0  0  0  0
   -3.1572  -15.0619   15.9099 C   0  0  0  0  0  0  0  0  0  0  0  0
   -3.1948  -16.8238   14.9354 C   0  0  0  0  0  0  0  0  0  0  0  0
   -4.0529  -17.1928   13.6754 C   0  0  0  0  0  0  0  0  0  0  0  0
   -5.0867  -16.4373   14.1983 C   0  0  0  0  0  0  0  0  0  0  0  0
   -4.4768  -16.1648   15.9148 O   0  0  0  0  0  0  0  0  0  0  0  0
    3.3737   -9.5579   16.9089 C   0  0  0  0  0  0  0  0  0  0  0  0
    3.4175   -8.6200   18.0141 C   0  0  0  0  0  0  0  0  0  0  0  0
    4.4933   -6.9997   18.0691 C   0  0  0  0  0  0  0  0  0  0  0  0
    4.8659   -5.8958   16.6748 C   0  0  0  0  0  0  0  0  0  0  0  0
    3.8540   -6.4156   15.6399 C   0  0  0  0  0  0  0  0  0  0  0  0
    2.9763   -7.9707   16.0448 C   0  0  0  0  0  0  0  0  0  0  0  0
    3.9091   -5.6544   14.3328 C   0  0  0  0  0  0  0  0  0  0  0  0
    3.7299   -4.4033   13.4021 C   0  0  0  0  0  0  0  0  0  0  0  0
    3.8747   -3.1166   14.1319 C   0  0  0  0  0  0  0  0  0  0  0  0
    4.8080   -3.2911   15.2384 N   0  0  0  0  0  0  0  0  0  0  0  0
    4.3055   -4.1913   16.3572 C   0  0  0  0  0  0  0  0  0  0  0  0
    1.3654  -12.0617   15.2071 H   0  0  0  0  0  0  0  0  0  0  0  0
    0.6539  -13.8106   17.5392 H   0  0  0  0  0  0  0  0  0  0  0  0
    1.6716  -14.6290   16.9653 H   0  0  0  0  0  0  0  0  0  0  0  0
   -1.3766  -14.5352   17.7669 H   0  0  0  0  0  0  0  0  0  0  0  0
   -1.6770  -13.1561   17.0527 H   0  0  0  0  0  0  0  0  0  0  0  0
   -2.8254  -14.7900   14.9269 H   0  0  0  0  0  0  0  0  0  0  0  0
   -2.3124  -17.3296   14.5861 H   0  0  0  0  0  0  0  0  0  0  0  0
   -3.4144  -17.6221   15.7179 H   0  0  0  0  0  0  0  0  0  0  0  0
   -3.9210  -16.7955   12.6693 H   0  0  0  0  0  0  0  0  0  0  0  0
   -4.4086  -18.1891   13.4573 H   0  0  0  0  0  0  0  0  0  0  0  0
   -6.1090  -16.7695   14.0774 H   0  0  0  0  0  0  0  0  0  0  0  0
   -5.0620  -15.6098   13.4394 H   0  0  0  0  0  0  0  0  0  0  0  0
    2.3511   -8.3568   18.2705 H   0  0  0  0  0  0  0  0  0  0  0  0
    5.4568   -7.2023   18.5479 H   0  0  0  0  0  0  0  0  0  0  0  0
    2.7851   -8.3820   15.0904 H   0  0  0  0  0  0  0  0  0  0  0  0
    4.3061   -6.4291   13.6571 H   0  0  0  0  0  0  0  0  0  0  0  0
    2.8649   -5.4270   14.6111 H   0  0  0  0  0  0  0  0  0  0  0  0
    4.4184   -4.4435   12.5529 H   0  0  0  0  0  0  0  0  0  0  0  0
    2.7480   -4.4193   12.9032 H   0  0  0  0  0  0  0  0  0  0  0  0
    4.2571   -2.3473   13.4509 H   0  0  0  0  0  0  0  0  0  0  0  0
    2.9038   -2.7494   14.4892 H   0  0  0  0  0  0  0  0  0  0  0  0
    4.7504   -2.3443   15.6157 H   0  0  0  0  0  0  0  0  0  0  0  0
    4.0625   -3.6658   17.2876 H   0  0  0  0  0  0  0  0  0  0  0  0
    3.3024   -4.2293   15.9611 H   0  0  0  0  0  0  0  0  0  0  0  0
  1  2  2  0
  2  3  1  0
  3  4  1  0
  4  5  1  0
  5  6  1  0
  6  7  1  0
  7  8  1  0
  8  9  1  0
  9 10  1  0
  2 11  1  0
 11 12  2  0
 12 13  1  0
 13 14  2  0
 14 15  1  0
 15 16  2  0
 15 17  1  0
 17 18  1  0
 18 19  1  0
 19 20  1  0
 20 21  1  0
 10  6  1  0
 16 11  1  0
 21 14  1  0
  3 22  1  0
  4 23  1  0
  4 24  1  0
  5 25  1  0
  5 26  1  0
  6 27  1  0
  7 28  1  0
  7 29  1  0
  8 30  1  0
  8 31  1  0
  9 32  1  0
  9 33  1  0
 12 34  1  0
 13 35  1  0
 16 36  1  0
 17 37  1  0
 17 38  1  0
 18 39  1  0
 18 40  1  0
 19 41  1  0
 19 42  1  0
 20 43  1  0
 21 44  1  0
 21 45  1  0
M  END
>  <Energy>  (1408) 
1335.5133090397235

>  <compound_id>  (1408) 
62432

>  <target_id>  (1408) 
1

>  <reference_id>  (1408) 
28

>  <inspiration_ids>  (1408) 
[28, 146]

>  <energy_score>  (1408) 
1276.9085871774155

>  <distance_score>  (1408) 
10.531079384045182

>  <path>  (1408) 
/opt/xchem-fragalysis-2/maxwin/BulkDock/SCRATCH/511021/C62432-P28/C62432-P28.minimised.mol

>  <scratch_subdir>  (1408) 
/opt/xchem-fragalysis-2/maxwin/BulkDock/SCRATCH/511021/C62432-P28

>  <fragmenstein_runtime>  (1408) 
23.166138648986816

>  <fragmenstein_outcome>  (1408) 
too moved

>  <fragmenstein_mode>  (1408) 
expansion

>  <fragmenstein_error>  (1408) 


$$$$
C62432-P146
     RDKit          3D

 45 47  0  0  0  0  0  0  0  0999 V2000
    8.2561   -9.1149   14.2661 O   0  0  0  0  0  0  0  0  0  0  0  0
    7.7631   -8.1225   13.8227 C   0  0  0  0  0  0  0  0  0  0  0  0
    6.6081   -8.0277   12.7827 N   0  0  0  0  0  0  0  0  0  0  0  0
    5.7565   -9.0978   12.1521 C   0  0  0  0  0  0  0  0  0  0  0  0
    5.0766   -9.0296   10.7443 C   0  0  0  0  0  0  0  0  0  0  0  0
    4.3934  -10.4117   10.2881 C   0  0  0  0  0  0  0  0  0  0  0  0
    4.1482  -10.5977    8.7930 C   0  0  0  0  0  0  0  0  0  0  0  0
    3.1407  -11.7372    8.7563 C   0  0  0  0  0  0  0  0  0  0  0  0
    2.2465  -11.3627    9.9068 C   0  0  0  0  0  0  0  0  0  0  0  0
    3.0878  -10.6640   10.8439 O   0  0  0  0  0  0  0  0  0  0  0  0
    8.5066   -6.6013   14.7043 C   0  0  0  0  0  0  0  0  0  0  0  0
    9.7496   -7.3203   15.2839 C   0  0  0  0  0  0  0  0  0  0  0  0
   11.2070   -6.3175   15.8871 C   0  0  0  0  0  0  0  0  0  0  0  0
   11.3566   -4.6758   15.8019 C   0  0  0  0  0  0  0  0  0  0  0  0
   10.3135   -3.9704   15.1083 C   0  0  0  0  0  0  0  0  0  0  0  0
    8.8484   -4.7656   14.7597 C   0  0  0  0  0  0  0  0  0  0  0  0
   10.4356   -2.4683   14.9277 C   0  0  0  0  0  0  0  0  0  0  0  0
   11.6969   -2.0857   14.1626 C   0  0  0  0  0  0  0  0  0  0  0  0
   12.9159   -1.9756   15.0750 C   0  0  0  0  0  0  0  0  0  0  0  0
   13.4086   -3.2262   15.6316 N   0  0  0  0  0  0  0  0  0  0  0  0
   12.5000   -3.9686   16.5003 C   0  0  0  0  0  0  0  0  0  0  0  0
    6.4666   -7.0689   12.5426 H   0  0  0  0  0  0  0  0  0  0  0  0
    4.9864   -9.3009   12.8989 H   0  0  0  0  0  0  0  0  0  0  0  0
    6.4027   -9.9845   12.1633 H   0  0  0  0  0  0  0  0  0  0  0  0
    5.8486   -8.7661   10.0125 H   0  0  0  0  0  0  0  0  0  0  0  0
    4.3244   -8.2337   10.7486 H   0  0  0  0  0  0  0  0  0  0  0  0
    5.0545  -11.2240   10.6136 H   0  0  0  0  0  0  0  0  0  0  0  0
    3.7028   -9.6917    8.3643 H   0  0  0  0  0  0  0  0  0  0  0  0
    5.0657  -10.8237    8.2426 H   0  0  0  0  0  0  0  0  0  0  0  0
    2.6083  -11.8196    7.8055 H   0  0  0  0  0  0  0  0  0  0  0  0
    3.6491  -12.6871    8.9549 H   0  0  0  0  0  0  0  0  0  0  0  0
    1.4724  -10.6646    9.5762 H   0  0  0  0  0  0  0  0  0  0  0  0
    1.7603  -12.2171   10.3813 H   0  0  0  0  0  0  0  0  0  0  0  0
    9.7760   -8.4475   15.3721 H   0  0  0  0  0  0  0  0  0  0  0  0
   12.0512   -6.8151   16.3545 H   0  0  0  0  0  0  0  0  0  0  0  0
    8.2157   -3.8399   14.7370 H   0  0  0  0  0  0  0  0  0  0  0  0
    9.5445   -2.1003   14.4241 H   0  0  0  0  0  0  0  0  0  0  0  0
   10.4357   -1.9568   15.8964 H   0  0  0  0  0  0  0  0  0  0  0  0
   11.8945   -2.7851   13.3413 H   0  0  0  0  0  0  0  0  0  0  0  0
   11.5388   -1.0976   13.7131 H   0  0  0  0  0  0  0  0  0  0  0  0
   13.7313   -1.5425   14.4830 H   0  0  0  0  0  0  0  0  0  0  0  0
   12.7174   -1.2611   15.8782 H   0  0  0  0  0  0  0  0  0  0  0  0
   14.2611   -3.0340   16.1571 H   0  0  0  0  0  0  0  0  0  0  0  0
   13.0907   -4.7299   17.0235 H   0  0  0  0  0  0  0  0  0  0  0  0
   12.1195   -3.3098   17.2815 H   0  0  0  0  0  0  0  0  0  0  0  0
  1  2  2  0
  2  3  1  0
  3  4  1  0
  4  5  1  0
  5  6  1  0
  6  7  1  0
  7  8  1  0
  8  9  1  0
  9 10  1  0
  2 11  1  0
 11 12  2  0
 12 13  1  0
 13 14  2  0
 14 15  1  0
 15 16  2  0
 15 17  1  0
 17 18  1  0
 18 19  1  0
 19 20  1  0
 20 21  1  0
 10  6  1  0
 16 11  1  0
 21 14  1  0
  3 22  1  0
  4 23  1  0
  4 24  1  0
  5 25  1  0
  5 26  1  0
  6 27  1  0
  7 28  1  0
  7 29  1  0
  8 30  1  0
  8 31  1  0
  9 32  1  0
  9 33  1  0
 12 34  1  0
 13 35  1  0
 16 36  1  0
 17 37  1  0
 17 38  1  0
 18 39  1  0
 18 40  1  0
 19 41  1  0
 19 42  1  0
 20 43  1  0
 21 44  1  0
 21 45  1  0
M  END
>  <Energy>  (1409) 
320.31663445138497

>  <compound_id>  (1409) 
62432

>  <target_id>  (1409) 
1

>  <reference_id>  (1409) 
146

>  <inspiration_ids>  (1409) 
[28, 146]

>  <energy_score>  (1409) 
261.71191258906595

>  <distance_score>  (1409) 
11.818185083933134

>  <path>  (1409) 
/opt/xchem-fragalysis-2/maxwin/BulkDock/SCRATCH/511021/C62432-P146/C62432-P146.minimised.mol

>  <scratch_subdir>  (1409) 
/opt/xchem-fragalysis-2/maxwin/BulkDock/SCRATCH/511021/C62432-P146

>  <fragmenstein_runtime>  (1409) 
24.970075845718384

>  <fragmenstein_outcome>  (1409) 
too moved

>  <fragmenstein_mode>  (1409) 
expansion

>  <fragmenstein_error>  (1409) 


$$$$
C62434-P28
     RDKit          3D

 42 44  0  0  0  0  0  0  0  0999 V2000
   10.4785   -5.9026    5.7642 O   0  0  0  0  0  0  0  0  0  0  0  0
   10.0045   -6.0489    6.8584 C   0  0  0  0  0  0  0  0  0  0  0  0
    8.7959   -6.8161    7.3020 N   0  0  0  0  0  0  0  0  0  0  0  0
    7.8624   -7.7176    6.5348 C   0  0  0  0  0  0  0  0  0  0  0  0
    6.9000   -8.5433    7.4986 C   0  0  0  0  0  0  0  0  0  0  0  0
    5.7604   -9.5358    6.9630 C   0  0  0  0  0  0  0  0  0  0  0  0
    4.3096   -9.2003    7.3776 C   0  0  0  0  0  0  0  0  0  0  0  0
    3.6160  -10.5211    7.7041 C   0  0  0  0  0  0  0  0  0  0  0  0
    4.6496  -11.5657    7.3739 C   0  0  0  0  0  0  0  0  0  0  0  0
    5.9197  -10.8880    7.4835 O   0  0  0  0  0  0  0  0  0  0  0  0
   10.8035   -5.4425    8.0443 C   0  0  0  0  0  0  0  0  0  0  0  0
   10.7009   -6.0469    9.2022 C   0  0  0  0  0  0  0  0  0  0  0  0
   11.5576   -5.3389   10.5232 C   0  0  0  0  0  0  0  0  0  0  0  0
   12.2922   -4.5713   11.2868 C   0  0  0  0  0  0  0  0  0  0  0  0
   12.6434   -4.2331   10.1075 C   0  0  0  0  0  0  0  0  0  0  0  0
   11.7534   -4.4660    8.4600 C   0  0  0  0  0  0  0  0  0  0  0  0
   14.1387   -3.0899   10.7274 C   0  0  0  0  0  0  0  0  0  0  0  0
   14.0200   -2.3103   12.1055 C   0  0  0  0  0  0  0  0  0  0  0  0
   13.2832   -3.0001   13.1500 N   0  0  0  0  0  0  0  0  0  0  0  0
   12.0409   -3.6018   12.6501 C   0  0  0  0  0  0  0  0  0  0  0  0
    8.6417   -6.6534    8.2885 H   0  0  0  0  0  0  0  0  0  0  0  0
    8.4755   -8.3890    5.9269 H   0  0  0  0  0  0  0  0  0  0  0  0
    7.2743   -7.0769    5.8712 H   0  0  0  0  0  0  0  0  0  0  0  0
    6.4153   -7.7900    8.1313 H   0  0  0  0  0  0  0  0  0  0  0  0
    7.5654   -9.1250    8.1449 H   0  0  0  0  0  0  0  0  0  0  0  0
    5.8360   -9.6017    5.8712 H   0  0  0  0  0  0  0  0  0  0  0  0
    4.2831   -8.5460    8.2558 H   0  0  0  0  0  0  0  0  0  0  0  0
    3.7997   -8.6626    6.5711 H   0  0  0  0  0  0  0  0  0  0  0  0
    3.3763  -10.5493    8.7731 H   0  0  0  0  0  0  0  0  0  0  0  0
    2.6834  -10.6652    7.1514 H   0  0  0  0  0  0  0  0  0  0  0  0
    4.6272  -12.4223    8.0526 H   0  0  0  0  0  0  0  0  0  0  0  0
    4.5440  -11.9241    6.3443 H   0  0  0  0  0  0  0  0  0  0  0  0
   10.3199   -7.0594    9.3564 H   0  0  0  0  0  0  0  0  0  0  0  0
   10.7863   -4.4334   10.4533 H   0  0  0  0  0  0  0  0  0  0  0  0
   11.9894   -3.7074    7.6796 H   0  0  0  0  0  0  0  0  0  0  0  0
   15.0860   -3.6609   10.7881 H   0  0  0  0  0  0  0  0  0  0  0  0
   14.4993   -2.3354   10.0163 H   0  0  0  0  0  0  0  0  0  0  0  0
   15.0356   -2.1075   12.4663 H   0  0  0  0  0  0  0  0  0  0  0  0
   13.5764   -1.3221   11.9360 H   0  0  0  0  0  0  0  0  0  0  0  0
   13.0821   -2.3733   13.9262 H   0  0  0  0  0  0  0  0  0  0  0  0
   11.3122   -2.8115   12.5033 H   0  0  0  0  0  0  0  0  0  0  0  0
   11.5630   -4.1102   13.5004 H   0  0  0  0  0  0  0  0  0  0  0  0
  1  2  2  0
  2  3  1  0
  3  4  1  0
  4  5  1  0
  5  6  1  0
  6  7  1  0
  7  8  1  0
  8  9  1  0
  9 10  1  0
  2 11  1  0
 11 12  2  0
 12 13  1  0
 13 14  2  0
 14 15  1  0
 15 16  2  0
 15 17  1  0
 17 18  1  0
 18 19  1  0
 19 20  1  0
 10  6  1  0
 16 11  1  0
 20 14  1  0
  3 21  1  0
  4 22  1  0
  4 23  1  0
  5 24  1  0
  5 25  1  0
  6 26  1  0
  7 27  1  0
  7 28  1  0
  8 29  1  0
  8 30  1  0
  9 31  1  0
  9 32  1  0
 12 33  1  0
 13 34  1  0
 16 35  1  0
 17 36  1  0
 17 37  1  0
 18 38  1  0
 18 39  1  0
 19 40  1  0
 20 41  1  0
 20 42  1  0
M  END
>  <Energy>  (1410) 
424.71153480367616

>  <compound_id>  (1410) 
62434

>  <target_id>  (1410) 
1

>  <reference_id>  (1410) 
28

>  <inspiration_ids>  (1410) 
[28, 146]

>  <energy_score>  (1410) 
360.8586666827236

>  <distance_score>  (1410) 
13.417201458820529

>  <path>  (1410) 
/opt/xchem-fragalysis-2/maxwin/BulkDock/SCRATCH/511021/C62434-P28/C62434-P28.minimised.mol

>  <scratch_subdir>  (1410) 
/opt/xchem-fragalysis-2/maxwin/BulkDock/SCRATCH/511021/C62434-P28

>  <fragmenstein_runtime>  (1410) 
23.483869791030884

>  <fragmenstein_outcome>  (1410) 
too moved

>  <fragmenstein_mode>  (1410) 
expansion

>  <fragmenstein_error>  (1410) 


$$$$
C62434-P146
     RDKit          3D

 42 44  0  0  0  0  0  0  0  0999 V2000
    5.7338  -11.2440   13.0964 O   0  0  0  0  0  0  0  0  0  0  0  0
    5.8616  -11.1788   14.2644 C   0  0  0  0  0  0  0  0  0  0  0  0
    4.1423  -11.8815   15.2036 N   0  0  0  0  0  0  0  0  0  0  0  0
    2.2421  -12.8342   14.4642 C   0  0  0  0  0  0  0  0  0  0  0  0
    0.5664  -14.0558   13.6313 C   0  0  0  0  0  0  0  0  0  0  0  0
   -1.4223  -14.8207   14.2625 C   0  0  0  0  0  0  0  0  0  0  0  0
   -2.7916  -16.3964   14.6813 C   0  0  0  0  0  0  0  0  0  0  0  0
   -4.1161  -16.7637   13.5907 C   0  0  0  0  0  0  0  0  0  0  0  0
   -4.1284  -15.4760   12.6492 C   0  0  0  0  0  0  0  0  0  0  0  0
   -3.1672  -14.3835   13.5949 O   0  0  0  0  0  0  0  0  0  0  0  0
    7.9625  -10.5001   14.7512 C   0  0  0  0  0  0  0  0  0  0  0  0
    8.9327   -9.9197   15.8964 C   0  0  0  0  0  0  0  0  0  0  0  0
    9.6156   -8.1395   15.5918 C   0  0  0  0  0  0  0  0  0  0  0  0
    8.8761   -6.8271   14.8534 C   0  0  0  0  0  0  0  0  0  0  0  0
    9.7563   -7.8555   14.8473 C   0  0  0  0  0  0  0  0  0  0  0  0
    9.6291   -9.8589   14.6209 C   0  0  0  0  0  0  0  0  0  0  0  0
   11.2377   -6.5420   15.7102 C   0  0  0  0  0  0  0  0  0  0  0  0
   11.5124   -4.7902   16.0775 C   0  0  0  0  0  0  0  0  0  0  0  0
   10.6204   -3.9383   15.3886 N   0  0  0  0  0  0  0  0  0  0  0  0
    9.5695   -4.8286   14.6452 C   0  0  0  0  0  0  0  0  0  0  0  0
    4.3069  -11.8946   16.1839 H   0  0  0  0  0  0  0  0  0  0  0  0
    1.9329  -12.9342   15.4933 H   0  0  0  0  0  0  0  0  0  0  0  0
    1.7839  -12.0839   13.7874 H   0  0  0  0  0  0  0  0  0  0  0  0
    0.6601  -14.6624   15.0084 H   0  0  0  0  0  0  0  0  0  0  0  0
    0.0796  -13.1997   13.1269 H   0  0  0  0  0  0  0  0  0  0  0  0
   -1.1993  -14.6072   15.4168 H   0  0  0  0  0  0  0  0  0  0  0  0
   -2.4513  -17.4217   14.5787 H   0  0  0  0  0  0  0  0  0  0  0  0
   -3.3389  -16.3229   15.6638 H   0  0  0  0  0  0  0  0  0  0  0  0
   -4.1477  -17.8268   13.4235 H   0  0  0  0  0  0  0  0  0  0  0  0
   -5.0815  -16.8689   14.0903 H   0  0  0  0  0  0  0  0  0  0  0  0
   -3.6612  -15.4575   11.6638 H   0  0  0  0  0  0  0  0  0  0  0  0
   -5.1031  -14.9914   12.5421 H   0  0  0  0  0  0  0  0  0  0  0  0
    8.9412  -10.3150   16.9220 H   0  0  0  0  0  0  0  0  0  0  0  0
    9.8368   -7.3705   16.3085 H   0  0  0  0  0  0  0  0  0  0  0  0
   10.4968  -10.5485   14.6713 H   0  0  0  0  0  0  0  0  0  0  0  0
   11.1807   -6.5327   16.7560 H   0  0  0  0  0  0  0  0  0  0  0  0
   12.2021   -7.1099   15.9403 H   0  0  0  0  0  0  0  0  0  0  0  0
   11.3819   -4.6425   17.1494 H   0  0  0  0  0  0  0  0  0  0  0  0
   12.5557   -4.4501   15.9797 H   0  0  0  0  0  0  0  0  0  0  0  0
   11.0816   -3.3117   14.7273 H   0  0  0  0  0  0  0  0  0  0  0  0
    8.7001   -4.1943   14.8871 H   0  0  0  0  0  0  0  0  0  0  0  0
   10.3867   -4.7641   13.8552 H   0  0  0  0  0  0  0  0  0  0  0  0
  1  2  2  0
  2  3  1  0
  3  4  1  0
  4  5  1  0
  5  6  1  0
  6  7  1  0
  7  8  1  0
  8  9  1  0
  9 10  1  0
  2 11  1  0
 11 12  2  0
 12 13  1  0
 13 14  2  0
 14 15  1  0
 15 16  2  0
 15 17  1  0
 17 18  1  0
 18 19  1  0
 19 20  1  0
 10  6  1  0
 16 11  1  0
 20 14  1  0
  3 21  1  0
  4 22  1  0
  4 23  1  0
  5 24  1  0
  5 25  1  0
  6 26  1  0
  7 27  1  0
  7 28  1  0
  8 29  1  0
  8 30  1  0
  9 31  1  0
  9 32  1  0
 12 33  1  0
 13 34  1  0
 16 35  1  0
 17 36  1  0
 17 37  1  0
 18 38  1  0
 18 39  1  0
 19 40  1  0
 20 41  1  0
 20 42  1  0
M  END
>  <Energy>  (1411) 
2764.3868189868817

>  <compound_id>  (1411) 
62434

>  <target_id>  (1411) 
1

>  <reference_id>  (1411) 
146

>  <inspiration_ids>  (1411) 
[28, 146]

>  <energy_score>  (1411) 
2700.5339508659436

>  <distance_score>  (1411) 
8.658481515314175

>  <path>  (1411) 
/opt/xchem-fragalysis-2/maxwin/BulkDock/SCRATCH/511021/C62434-P146/C62434-P146.minimised.mol

>  <scratch_subdir>  (1411) 
/opt/xchem-fragalysis-2/maxwin/BulkDock/SCRATCH/511021/C62434-P146

>  <fragmenstein_runtime>  (1411) 
15.523777961730957

>  <fragmenstein_outcome>  (1411) 
too moved

>  <fragmenstein_mode>  (1411) 
expansion

>  <fragmenstein_error>  (1411) 


$$$$
C62443-P28
     RDKit          3D

 46 48  0  0  0  0  0  0  0  0999 V2000
    9.0793   -6.9805   15.0688 C   0  0  0  0  0  0  0  0  0  0  0  0
   10.7017   -5.7874   15.2168 C   0  0  0  0  0  0  0  0  0  0  0  0
   10.2684   -4.1827   15.0963 C   0  0  0  0  0  0  0  0  0  0  0  0
    8.5432   -4.0741   15.4210 C   0  0  0  0  0  0  0  0  0  0  0  0
    7.3347   -5.6476   15.6632 C   0  0  0  0  0  0  0  0  0  0  0  0
    7.1505   -7.2807   14.9444 C   0  0  0  0  0  0  0  0  0  0  0  0
    5.5732   -8.3317   14.2124 O   0  0  0  0  0  0  0  0  0  0  0  0
    4.1700   -9.9251   13.9477 C   0  0  0  0  0  0  0  0  0  0  0  0
    2.1809  -10.9007   13.4305 C   0  0  0  0  0  0  0  0  0  0  0  0
    0.8664  -12.5242   13.3850 O   0  0  0  0  0  0  0  0  0  0  0  0
   -0.8626  -13.5968   13.6620 C   0  0  0  0  0  0  0  0  0  0  0  0
   -2.6269  -14.6397   14.5556 C   0  0  0  0  0  0  0  0  0  0  0  0
   -3.9751  -14.4431   13.0309 C   0  0  0  0  0  0  0  0  0  0  0  0
   -4.8890  -15.6479   12.7861 C   0  0  0  0  0  0  0  0  0  0  0  0
   -4.4888  -16.6530   13.8552 C   0  0  0  0  0  0  0  0  0  0  0  0
   -3.2333  -16.3652   14.6866 O   0  0  0  0  0  0  0  0  0  0  0  0
    8.0117   -2.5474   15.0563 C   0  0  0  0  0  0  0  0  0  0  0  0
    8.6517   -1.1931   15.4531 C   0  0  0  0  0  0  0  0  0  0  0  0
    9.9997   -1.0838   16.0181 N   0  0  0  0  0  0  0  0  0  0  0  0
   11.0241   -1.6764   15.1489 C   0  0  0  0  0  0  0  0  0  0  0  0
   11.3096   -3.1502   15.3895 C   0  0  0  0  0  0  0  0  0  0  0  0
    9.6617   -7.9074   15.2966 H   0  0  0  0  0  0  0  0  0  0  0  0
   11.6268   -5.9486   15.7978 H   0  0  0  0  0  0  0  0  0  0  0  0
    6.4178   -5.5213   16.2522 H   0  0  0  0  0  0  0  0  0  0  0  0
    4.9433  -10.4998   13.4296 H   0  0  0  0  0  0  0  0  0  0  0  0
    4.3464  -10.4991   14.8687 H   0  0  0  0  0  0  0  0  0  0  0  0
    1.9220  -10.7391   12.3186 H   0  0  0  0  0  0  0  0  0  0  0  0
    1.8216  -11.6383   14.1840 H   0  0  0  0  0  0  0  0  0  0  0  0
   -0.9532  -13.8443   14.7242 H   0  0  0  0  0  0  0  0  0  0  0  0
   -1.0570  -12.5539   13.6059 H   0  0  0  0  0  0  0  0  0  0  0  0
   -3.0215  -14.4349   15.6577 H   0  0  0  0  0  0  0  0  0  0  0  0
   -4.5273  -13.4981   13.0024 H   0  0  0  0  0  0  0  0  0  0  0  0
   -3.4918  -14.5228   12.0471 H   0  0  0  0  0  0  0  0  0  0  0  0
   -4.8201  -15.9975   11.7491 H   0  0  0  0  0  0  0  0  0  0  0  0
   -5.9545  -15.3880   12.8249 H   0  0  0  0  0  0  0  0  0  0  0  0
   -5.3067  -16.5483   14.5294 H   0  0  0  0  0  0  0  0  0  0  0  0
   -4.5506  -17.7007   13.5554 H   0  0  0  0  0  0  0  0  0  0  0  0
    6.9309   -2.4903   15.1386 H   0  0  0  0  0  0  0  0  0  0  0  0
    8.0497   -2.4733   13.9823 H   0  0  0  0  0  0  0  0  0  0  0  0
    7.9777   -0.6968   16.1557 H   0  0  0  0  0  0  0  0  0  0  0  0
    8.5927   -0.5164   14.5914 H   0  0  0  0  0  0  0  0  0  0  0  0
   10.1990   -0.0814   16.0426 H   0  0  0  0  0  0  0  0  0  0  0  0
   10.8579   -1.4672   14.0961 H   0  0  0  0  0  0  0  0  0  0  0  0
   11.9578   -1.1477   15.3852 H   0  0  0  0  0  0  0  0  0  0  0  0
   12.1904   -3.4132   14.7896 H   0  0  0  0  0  0  0  0  0  0  0  0
   11.6100   -3.2799   16.4374 H   0  0  0  0  0  0  0  0  0  0  0  0
  1  2  2  0
  2  3  1  0
  3  4  2  0
  4  5  1  0
  5  6  2  0
  6  7  1  0
  7  8  1  0
  8  9  1  0
  9 10  1  0
 10 11  1  0
 11 12  1  0
 12 13  1  0
 13 14  1  0
 14 15  1  0
 15 16  1  0
  4 17  1  0
 17 18  1  0
 18 19  1  0
 19 20  1  0
 20 21  1  0
  6  1  1  0
 16 12  1  0
 21  3  1  0
  1 22  1  0
  2 23  1  0
  5 24  1  0
  8 25  1  0
  8 26  1  0
  9 27  1  0
  9 28  1  0
 11 29  1  0
 11 30  1  0
 12 31  1  0
 13 32  1  0
 13 33  1  0
 14 34  1  0
 14 35  1  0
 15 36  1  0
 15 37  1  0
 17 38  1  0
 17 39  1  0
 18 40  1  0
 18 41  1  0
 19 42  1  0
 20 43  1  0
 20 44  1  0
 21 45  1  0
 21 46  1  0
M  END
>  <Energy>  (1412) 
2163.5580349073957

>  <compound_id>  (1412) 
62443

>  <target_id>  (1412) 
1

>  <reference_id>  (1412) 
28

>  <inspiration_ids>  (1412) 
[28, 146]

>  <energy_score>  (1412) 
2026.972890783029

>  <distance_score>  (1412) 
7.345260387887412

>  <path>  (1412) 
/opt/xchem-fragalysis-2/maxwin/BulkDock/SCRATCH/511021/C62443-P28/C62443-P28.minimised.mol

>  <scratch_subdir>  (1412) 
/opt/xchem-fragalysis-2/maxwin/BulkDock/SCRATCH/511021/C62443-P28

>  <fragmenstein_runtime>  (1412) 
13.389767408370972

>  <fragmenstein_outcome>  (1412) 
too moved

>  <fragmenstein_mode>  (1412) 
expansion

>  <fragmenstein_error>  (1412) 


$$$$
C62443-P146
     RDKit          3D

 46 48  0  0  0  0  0  0  0  0999 V2000
    7.6037   -8.6387   20.5628 C   0  0  0  0  0  0  0  0  0  0  0  0
    9.3139   -8.1958   21.0860 C   0  0  0  0  0  0  0  0  0  0  0  0
   10.2465   -6.6793   20.7751 C   0  0  0  0  0  0  0  0  0  0  0  0
    9.4730   -6.0599   19.2464 C   0  0  0  0  0  0  0  0  0  0  0  0
    7.4366   -6.5557   19.1078 C   0  0  0  0  0  0  0  0  0  0  0  0
    6.3365   -7.8784   19.6350 C   0  0  0  0  0  0  0  0  0  0  0  0
    4.9864   -8.9554   18.8011 O   0  0  0  0  0  0  0  0  0  0  0  0
    3.6433   -9.8781   17.6014 C   0  0  0  0  0  0  0  0  0  0  0  0
    3.3490  -11.5654   16.3145 C   0  0  0  0  0  0  0  0  0  0  0  0
    2.0867  -12.8054   15.2087 O   0  0  0  0  0  0  0  0  0  0  0  0
    0.9319  -13.0318   13.5476 C   0  0  0  0  0  0  0  0  0  0  0  0
   -0.9516  -13.9993   13.3927 C   0  0  0  0  0  0  0  0  0  0  0  0
   -3.1618  -14.4324   13.4884 C   0  0  0  0  0  0  0  0  0  0  0  0
   -3.3276  -15.0665   11.6620 C   0  0  0  0  0  0  0  0  0  0  0  0
   -1.7286  -15.1007   11.0902 C   0  0  0  0  0  0  0  0  0  0  0  0
   -0.6229  -14.6932   12.0455 O   0  0  0  0  0  0  0  0  0  0  0  0
   10.7565   -5.0184   17.9072 C   0  0  0  0  0  0  0  0  0  0  0  0
   12.4635   -4.6449   18.4893 C   0  0  0  0  0  0  0  0  0  0  0  0
   13.0620   -5.1171   19.7579 N   0  0  0  0  0  0  0  0  0  0  0  0
   12.3384   -4.9483   21.0196 C   0  0  0  0  0  0  0  0  0  0  0  0
   11.2832   -5.9683   21.5776 C   0  0  0  0  0  0  0  0  0  0  0  0
    7.3336   -9.6524   20.8882 H   0  0  0  0  0  0  0  0  0  0  0  0
    9.7382   -8.8657   21.8398 H   0  0  0  0  0  0  0  0  0  0  0  0
    6.8379   -6.1917   18.2131 H   0  0  0  0  0  0  0  0  0  0  0  0
    2.8822  -10.0197   18.3642 H   0  0  0  0  0  0  0  0  0  0  0  0
    3.0347   -9.0151   17.2531 H   0  0  0  0  0  0  0  0  0  0  0  0
    3.7283  -12.2306   17.0915 H   0  0  0  0  0  0  0  0  0  0  0  0
    4.0840  -11.4415   15.5158 H   0  0  0  0  0  0  0  0  0  0  0  0
    1.4593  -13.8088   13.0037 H   0  0  0  0  0  0  0  0  0  0  0  0
    0.9924  -12.2002   12.8628 H   0  0  0  0  0  0  0  0  0  0  0  0
   -0.9904  -14.3696   14.3722 H   0  0  0  0  0  0  0  0  0  0  0  0
   -3.9862  -13.6782   13.3060 H   0  0  0  0  0  0  0  0  0  0  0  0
   -3.7923  -15.3639   13.2804 H   0  0  0  0  0  0  0  0  0  0  0  0
   -4.2304  -14.6028   11.2206 H   0  0  0  0  0  0  0  0  0  0  0  0
   -3.7400  -16.0371   11.6087 H   0  0  0  0  0  0  0  0  0  0  0  0
   -1.3827  -15.9926   10.5924 H   0  0  0  0  0  0  0  0  0  0  0  0
   -1.6636  -14.4192   10.2973 H   0  0  0  0  0  0  0  0  0  0  0  0
   10.6396   -4.2108   17.1638 H   0  0  0  0  0  0  0  0  0  0  0  0
   11.1455   -5.6579   17.0149 H   0  0  0  0  0  0  0  0  0  0  0  0
   12.5999   -3.5607   18.3947 H   0  0  0  0  0  0  0  0  0  0  0  0
   13.0945   -5.0445   17.6812 H   0  0  0  0  0  0  0  0  0  0  0  0
   13.9782   -4.6790   19.8456 H   0  0  0  0  0  0  0  0  0  0  0  0
   13.1264   -4.9630   21.7881 H   0  0  0  0  0  0  0  0  0  0  0  0
   11.9667   -3.9297   21.1214 H   0  0  0  0  0  0  0  0  0  0  0  0
   11.7756   -6.6963   22.2218 H   0  0  0  0  0  0  0  0  0  0  0  0
   10.6977   -5.3800   22.3003 H   0  0  0  0  0  0  0  0  0  0  0  0
  1  2  2  0
  2  3  1  0
  3  4  2  0
  4  5  1  0
  5  6  2  0
  6  7  1  0
  7  8  1  0
  8  9  1  0
  9 10  1  0
 10 11  1  0
 11 12  1  0
 12 13  1  0
 13 14  1  0
 14 15  1  0
 15 16  1  0
  4 17  1  0
 17 18  1  0
 18 19  1  0
 19 20  1  0
 20 21  1  0
  6  1  1  0
 16 12  1  0
 21  3  1  0
  1 22  1  0
  2 23  1  0
  5 24  1  0
  8 25  1  0
  8 26  1  0
  9 27  1  0
  9 28  1  0
 11 29  1  0
 11 30  1  0
 12 31  1  0
 13 32  1  0
 13 33  1  0
 14 34  1  0
 14 35  1  0
 15 36  1  0
 15 37  1  0
 17 38  1  0
 17 39  1  0
 18 40  1  0
 18 41  1  0
 19 42  1  0
 20 43  1  0
 20 44  1  0
 21 45  1  0
 21 46  1  0
M  END
>  <Energy>  (1413) 
1897.0865421147585

>  <compound_id>  (1413) 
62443

>  <target_id>  (1413) 
1

>  <reference_id>  (1413) 
146

>  <inspiration_ids>  (1413) 
[28, 146]

>  <energy_score>  (1413) 
1760.501397990412

>  <distance_score>  (1413) 
9.896723639506755

>  <path>  (1413) 
/opt/xchem-fragalysis-2/maxwin/BulkDock/SCRATCH/511021/C62443-P146/C62443-P146.minimised.mol

>  <scratch_subdir>  (1413) 
/opt/xchem-fragalysis-2/maxwin/BulkDock/SCRATCH/511021/C62443-P146

>  <fragmenstein_runtime>  (1413) 
19.265719652175903

>  <fragmenstein_outcome>  (1413) 
too moved

>  <fragmenstein_mode>  (1413) 
expansion

>  <fragmenstein_error>  (1413) 


$$$$
C62444-P28
     RDKit          3D

 46 48  0  0  0  0  0  0  0  0999 V2000
    3.2650  -14.4477    7.0327 O   0  0  0  0  0  0  0  0  0  0  0  0
    3.6255  -14.8494    8.1072 C   0  0  0  0  0  0  0  0  0  0  0  0
    3.1895  -16.0356    8.8913 N   0  0  0  0  0  0  0  0  0  0  0  0
    2.2074  -17.1898    8.5334 C   0  0  0  0  0  0  0  0  0  0  0  0
    1.2117  -17.6515    9.7350 C   0  0  0  0  0  0  0  0  0  0  0  0
    0.1388  -18.7617    9.4403 C   0  0  0  0  0  0  0  0  0  0  0  0
   -0.3911  -19.3495   10.6291 O   0  0  0  0  0  0  0  0  0  0  0  0
    3.0096  -18.4341    8.1179 C   0  0  0  0  0  0  0  0  0  0  0  0
    2.1850  -19.1159    7.0284 C   0  0  0  0  0  0  0  0  0  0  0  0
    1.0448  -18.2850    6.7831 O   0  0  0  0  0  0  0  0  0  0  0  0
    1.4339  -16.9671    7.2223 C   0  0  0  0  0  0  0  0  0  0  0  0
    4.7065  -13.8791    8.7371 C   0  0  0  0  0  0  0  0  0  0  0  0
    6.0091  -14.2618    9.0845 C   0  0  0  0  0  0  0  0  0  0  0  0
    6.9599  -13.3202    9.5940 C   0  0  0  0  0  0  0  0  0  0  0  0
    6.6683  -11.9487    9.7798 C   0  0  0  0  0  0  0  0  0  0  0  0
    5.3678  -11.5320    9.4573 C   0  0  0  0  0  0  0  0  0  0  0  0
    4.4347  -12.4907    8.9038 C   0  0  0  0  0  0  0  0  0  0  0  0
    4.9017  -10.0900    9.6145 C   0  0  0  0  0  0  0  0  0  0  0  0
    5.4667   -9.3242   10.8201 C   0  0  0  0  0  0  0  0  0  0  0  0
    6.7850   -8.7108   10.6286 N   0  0  0  0  0  0  0  0  0  0  0  0
    7.7291   -9.5571    9.9005 C   0  0  0  0  0  0  0  0  0  0  0  0
    7.7586  -11.0359   10.3340 C   0  0  0  0  0  0  0  0  0  0  0  0
    3.6465  -16.0240    9.7923 H   0  0  0  0  0  0  0  0  0  0  0  0
    0.6920  -16.7653   10.1164 H   0  0  0  0  0  0  0  0  0  0  0  0
    1.8356  -17.9874   10.5740 H   0  0  0  0  0  0  0  0  0  0  0  0
   -0.6887  -18.3394    8.8622 H   0  0  0  0  0  0  0  0  0  0  0  0
    0.5742  -19.5964    8.8981 H   0  0  0  0  0  0  0  0  0  0  0  0
   -1.0597  -20.0040   10.3574 H   0  0  0  0  0  0  0  0  0  0  0  0
    3.9849  -18.1539    7.6988 H   0  0  0  0  0  0  0  0  0  0  0  0
    3.2244  -19.1117    8.9513 H   0  0  0  0  0  0  0  0  0  0  0  0
    1.8630  -20.1249    7.2991 H   0  0  0  0  0  0  0  0  0  0  0  0
    2.7615  -19.1939    6.0998 H   0  0  0  0  0  0  0  0  0  0  0  0
    2.0568  -16.5346    6.4322 H   0  0  0  0  0  0  0  0  0  0  0  0
    0.5430  -16.3572    7.3195 H   0  0  0  0  0  0  0  0  0  0  0  0
    6.3143  -15.2953    8.9379 H   0  0  0  0  0  0  0  0  0  0  0  0
    7.9608  -13.6852    9.8227 H   0  0  0  0  0  0  0  0  0  0  0  0
    3.4484  -12.1383    8.5967 H   0  0  0  0  0  0  0  0  0  0  0  0
    3.8105  -10.1075    9.7403 H   0  0  0  0  0  0  0  0  0  0  0  0
    5.0932   -9.5486    8.6799 H   0  0  0  0  0  0  0  0  0  0  0  0
    5.4901   -9.9684   11.7065 H   0  0  0  0  0  0  0  0  0  0  0  0
    4.7788   -8.5036   11.0555 H   0  0  0  0  0  0  0  0  0  0  0  0
    7.1489   -8.4662   11.5489 H   0  0  0  0  0  0  0  0  0  0  0  0
    8.7273   -9.1282   10.0494 H   0  0  0  0  0  0  0  0  0  0  0  0
    7.5367   -9.4827    8.8232 H   0  0  0  0  0  0  0  0  0  0  0  0
    7.7495  -11.1152   11.4284 H   0  0  0  0  0  0  0  0  0  0  0  0
    8.7256  -11.4380   10.0028 H   0  0  0  0  0  0  0  0  0  0  0  0
  1  2  2  0
  2  3  1  0
  3  4  1  0
  4  5  1  0
  5  6  1  0
  6  7  1  0
  4  8  1  0
  8  9  1  0
  9 10  1  0
 10 11  1  0
  2 12  1  0
 12 13  2  0
 13 14  1  0
 14 15  2  0
 15 16  1  0
 16 17  2  0
 16 18  1  0
 18 19  1  0
 19 20  1  0
 20 21  1  0
 21 22  1  0
 11  4  1  0
 17 12  1  0
 22 15  1  0
  3 23  1  0
  5 24  1  0
  5 25  1  0
  6 26  1  0
  6 27  1  0
  7 28  1  0
  8 29  1  0
  8 30  1  0
  9 31  1  0
  9 32  1  0
 11 33  1  0
 11 34  1  0
 13 35  1  0
 14 36  1  0
 17 37  1  0
 18 38  1  0
 18 39  1  0
 19 40  1  0
 19 41  1  0
 20 42  1  0
 21 43  1  0
 21 44  1  0
 22 45  1  0
 22 46  1  0
M  END
>  <Energy>  (1414) 
110.82670229422094

>  <compound_id>  (1414) 
62444

>  <target_id>  (1414) 
1

>  <reference_id>  (1414) 
28

>  <inspiration_ids>  (1414) 
[28, 146]

>  <energy_score>  (1414) 
-36.37779633281832

>  <distance_score>  (1414) 
13.593598144969823

>  <path>  (1414) 
/opt/xchem-fragalysis-2/maxwin/BulkDock/SCRATCH/511021/C62444-P28/C62444-P28.minimised.mol

>  <scratch_subdir>  (1414) 
/opt/xchem-fragalysis-2/maxwin/BulkDock/SCRATCH/511021/C62444-P28

>  <fragmenstein_runtime>  (1414) 
22.804433345794678

>  <fragmenstein_outcome>  (1414) 
too moved

>  <fragmenstein_mode>  (1414) 
expansion

>  <fragmenstein_error>  (1414) 


$$$$
C62444-P146
     RDKit          3D

 46 48  0  0  0  0  0  0  0  0999 V2000
    9.8758  -13.3143   12.8671 O   0  0  0  0  0  0  0  0  0  0  0  0
    9.0111  -12.4805   12.7598 C   0  0  0  0  0  0  0  0  0  0  0  0
    7.7950  -12.4345   11.8483 N   0  0  0  0  0  0  0  0  0  0  0  0
    7.3294  -13.4177   10.6714 C   0  0  0  0  0  0  0  0  0  0  0  0
    5.8564  -13.0658   10.0454 C   0  0  0  0  0  0  0  0  0  0  0  0
    5.1825  -13.9953    8.9500 C   0  0  0  0  0  0  0  0  0  0  0  0
    3.7645  -13.8219    8.8133 O   0  0  0  0  0  0  0  0  0  0  0  0
    7.4031  -14.8974   11.0672 C   0  0  0  0  0  0  0  0  0  0  0  0
    7.6953  -15.6817    9.8071 C   0  0  0  0  0  0  0  0  0  0  0  0
    7.9926  -14.6999    8.8066 O   0  0  0  0  0  0  0  0  0  0  0  0
    8.3201  -13.4699    9.5016 C   0  0  0  0  0  0  0  0  0  0  0  0
    9.2796  -11.2328   13.7839 C   0  0  0  0  0  0  0  0  0  0  0  0
   10.2479  -11.1295   14.8223 C   0  0  0  0  0  0  0  0  0  0  0  0
   10.5022   -9.8821   15.6711 C   0  0  0  0  0  0  0  0  0  0  0  0
    9.8610   -8.4852   15.4739 C   0  0  0  0  0  0  0  0  0  0  0  0
    8.7800   -8.8396   14.6410 C   0  0  0  0  0  0  0  0  0  0  0  0
    8.4807  -10.1225   13.8321 C   0  0  0  0  0  0  0  0  0  0  0  0
    8.0074   -7.7689   14.0966 C   0  0  0  0  0  0  0  0  0  0  0  0
    8.4495   -6.2294   14.7921 C   0  0  0  0  0  0  0  0  0  0  0  0
    9.5755   -4.6657   14.6618 N   0  0  0  0  0  0  0  0  0  0  0  0
   10.9589   -4.9859   14.9728 C   0  0  0  0  0  0  0  0  0  0  0  0
   10.9851   -6.7121   15.8455 C   0  0  0  0  0  0  0  0  0  0  0  0
    7.3264  -11.5483   11.9632 H   0  0  0  0  0  0  0  0  0  0  0  0
    5.1713  -12.8759   10.8563 H   0  0  0  0  0  0  0  0  0  0  0  0
    5.9504  -12.0720    9.5831 H   0  0  0  0  0  0  0  0  0  0  0  0
    5.3227  -15.0532    9.1457 H   0  0  0  0  0  0  0  0  0  0  0  0
    5.6344  -13.7869    7.9741 H   0  0  0  0  0  0  0  0  0  0  0  0
    3.6205  -12.9571    8.3922 H   0  0  0  0  0  0  0  0  0  0  0  0
    6.5253  -15.2853   11.5734 H   0  0  0  0  0  0  0  0  0  0  0  0
    8.2775  -15.0500   11.7057 H   0  0  0  0  0  0  0  0  0  0  0  0
    6.8756  -16.3230    9.4766 H   0  0  0  0  0  0  0  0  0  0  0  0
    8.5744  -16.3231    9.9352 H   0  0  0  0  0  0  0  0  0  0  0  0
    9.3625  -13.5263    9.8368 H   0  0  0  0  0  0  0  0  0  0  0  0
    8.2216  -12.6260    8.8125 H   0  0  0  0  0  0  0  0  0  0  0  0
   10.9039  -11.9839   14.9956 H   0  0  0  0  0  0  0  0  0  0  0  0
   11.3965   -9.9735   16.3003 H   0  0  0  0  0  0  0  0  0  0  0  0
    7.6262  -10.0588   13.1602 H   0  0  0  0  0  0  0  0  0  0  0  0
    6.9444   -7.9447   14.3062 H   0  0  0  0  0  0  0  0  0  0  0  0
    7.9433   -7.7663   12.9878 H   0  0  0  0  0  0  0  0  0  0  0  0
    8.4620   -5.6975   13.9175 H   0  0  0  0  0  0  0  0  0  0  0  0
    7.6813   -5.9384   15.5564 H   0  0  0  0  0  0  0  0  0  0  0  0
    9.1505   -4.1945   15.4308 H   0  0  0  0  0  0  0  0  0  0  0  0
   11.4132   -4.8672   13.9786 H   0  0  0  0  0  0  0  0  0  0  0  0
   11.3962   -4.2594   15.6773 H   0  0  0  0  0  0  0  0  0  0  0  0
   12.0609   -7.0386   16.0101 H   0  0  0  0  0  0  0  0  0  0  0  0
   11.0847   -6.3016   16.8181 H   0  0  0  0  0  0  0  0  0  0  0  0
  1  2  2  0
  2  3  1  0
  3  4  1  0
  4  5  1  0
  5  6  1  0
  6  7  1  0
  4  8  1  0
  8  9  1  0
  9 10  1  0
 10 11  1  0
  2 12  1  0
 12 13  2  0
 13 14  1  0
 14 15  2  0
 15 16  1  0
 16 17  2  0
 16 18  1  0
 18 19  1  0
 19 20  1  0
 20 21  1  0
 21 22  1  0
 11  4  1  0
 17 12  1  0
 22 15  1  0
  3 23  1  0
  5 24  1  0
  5 25  1  0
  6 26  1  0
  6 27  1  0
  7 28  1  0
  8 29  1  0
  8 30  1  0
  9 31  1  0
  9 32  1  0
 11 33  1  0
 11 34  1  0
 13 35  1  0
 14 36  1  0
 17 37  1  0
 18 38  1  0
 18 39  1  0
 19 40  1  0
 19 41  1  0
 20 42  1  0
 21 43  1  0
 21 44  1  0
 22 45  1  0
 22 46  1  0
M  END
>  <Energy>  (1415) 
471.75839543896126

>  <compound_id>  (1415) 
62444

>  <target_id>  (1415) 
1

>  <reference_id>  (1415) 
146

>  <inspiration_ids>  (1415) 
[28, 146]

>  <energy_score>  (1415) 
324.55389681191775

>  <distance_score>  (1415) 
14.552145967264074

>  <path>  (1415) 
/opt/xchem-fragalysis-2/maxwin/BulkDock/SCRATCH/511021/C62444-P146/C62444-P146.minimised.mol

>  <scratch_subdir>  (1415) 
/opt/xchem-fragalysis-2/maxwin/BulkDock/SCRATCH/511021/C62444-P146

>  <fragmenstein_runtime>  (1415) 
19.593583345413208

>  <fragmenstein_outcome>  (1415) 
too moved

>  <fragmenstein_mode>  (1415) 
expansion

>  <fragmenstein_error>  (1415) 


$$$$
C37315-P28
     RDKit          3D

 46 48  0  0  0  0  0  0  0  0999 V2000
   -2.0693  -20.7687   11.2511 C   0  0  0  0  0  0  0  0  0  0  0  0
   -1.2747  -20.3838   10.1262 O   0  0  0  0  0  0  0  0  0  0  0  0
   -0.3929  -19.2559   10.3608 C   0  0  0  0  0  0  0  0  0  0  0  0
    0.2921  -18.7226    9.0152 C   0  0  0  0  0  0  0  0  0  0  0  0
    1.3603  -17.5758    9.1246 N   0  0  0  0  0  0  0  0  0  0  0  0
    1.9158  -16.6667    8.0953 C   0  0  0  0  0  0  0  0  0  0  0  0
    1.6261  -16.5288    6.9359 O   0  0  0  0  0  0  0  0  0  0  0  0
    3.1728  -15.7656    8.4510 C   0  0  0  0  0  0  0  0  0  0  0  0
    4.3977  -16.3077    8.8575 C   0  0  0  0  0  0  0  0  0  0  0  0
    5.6180  -15.5587    8.7552 C   0  0  0  0  0  0  0  0  0  0  0  0
    5.6716  -14.2246    8.2954 C   0  0  0  0  0  0  0  0  0  0  0  0
    4.4591  -13.6257    7.9585 C   0  0  0  0  0  0  0  0  0  0  0  0
    3.2519  -14.4054    8.0045 C   0  0  0  0  0  0  0  0  0  0  0  0
    4.4679  -12.1913    7.4703 C   0  0  0  0  0  0  0  0  0  0  0  0
    5.7922  -11.8086    6.7861 C   0  0  0  0  0  0  0  0  0  0  0  0
    6.9689  -12.1368    7.5885 N   0  0  0  0  0  0  0  0  0  0  0  0
    7.0014  -13.5674    7.9366 C   0  0  0  0  0  0  0  0  0  0  0  0
   -0.7962  -18.5761    7.8874 C   0  0  0  0  0  0  0  0  0  0  0  0
   -2.1657  -17.9937    8.2609 C   0  0  0  0  0  0  0  0  0  0  0  0
   -3.1610  -19.1034    7.9933 C   0  0  0  0  0  0  0  0  0  0  0  0
   -2.4631  -19.9488    6.9691 C   0  0  0  0  0  0  0  0  0  0  0  0
   -1.0754  -19.8815    7.3029 O   0  0  0  0  0  0  0  0  0  0  0  0
   -1.4200  -21.1149   12.0601 H   0  0  0  0  0  0  0  0  0  0  0  0
   -2.7290  -21.5848   10.9462 H   0  0  0  0  0  0  0  0  0  0  0  0
   -2.6735  -19.9253   11.5934 H   0  0  0  0  0  0  0  0  0  0  0  0
   -0.9468  -18.4407   10.8387 H   0  0  0  0  0  0  0  0  0  0  0  0
    0.3953  -19.5727   11.0533 H   0  0  0  0  0  0  0  0  0  0  0  0
    0.9245  -19.5595    8.6852 H   0  0  0  0  0  0  0  0  0  0  0  0
    1.9016  -17.4816    9.9788 H   0  0  0  0  0  0  0  0  0  0  0  0
    4.4516  -17.3619    9.1224 H   0  0  0  0  0  0  0  0  0  0  0  0
    6.5493  -16.0918    8.9322 H   0  0  0  0  0  0  0  0  0  0  0  0
    2.3515  -13.9665    7.5726 H   0  0  0  0  0  0  0  0  0  0  0  0
    3.6514  -12.0419    6.7538 H   0  0  0  0  0  0  0  0  0  0  0  0
    4.2747  -11.5371    8.3249 H   0  0  0  0  0  0  0  0  0  0  0  0
    5.8687  -12.3178    5.8168 H   0  0  0  0  0  0  0  0  0  0  0  0
    5.7912  -10.7340    6.5722 H   0  0  0  0  0  0  0  0  0  0  0  0
    6.9435  -11.5696    8.4254 H   0  0  0  0  0  0  0  0  0  0  0  0
    7.7209  -13.7238    8.7482 H   0  0  0  0  0  0  0  0  0  0  0  0
    7.3985  -14.1053    7.0660 H   0  0  0  0  0  0  0  0  0  0  0  0
   -0.3765  -17.9823    7.0702 H   0  0  0  0  0  0  0  0  0  0  0  0
   -2.2318  -17.5912    9.2737 H   0  0  0  0  0  0  0  0  0  0  0  0
   -2.3812  -17.1532    7.5888 H   0  0  0  0  0  0  0  0  0  0  0  0
   -3.3106  -19.7067    8.8887 H   0  0  0  0  0  0  0  0  0  0  0  0
   -4.1353  -18.7418    7.6543 H   0  0  0  0  0  0  0  0  0  0  0  0
   -2.7969  -20.9900    6.9761 H   0  0  0  0  0  0  0  0  0  0  0  0
   -2.5929  -19.5443    5.9594 H   0  0  0  0  0  0  0  0  0  0  0  0
  1  2  1  0
  2  3  1  0
  3  4  1  0
  4  5  1  0
  5  6  1  0
  6  7  2  0
  6  8  1  0
  8  9  2  0
  9 10  1  0
 10 11  2  0
 11 12  1  0
 12 13  2  0
 12 14  1  0
 14 15  1  0
 15 16  1  0
 16 17  1  0
  4 18  1  0
 18 19  1  0
 19 20  1  0
 20 21  1  0
 21 22  1  0
 13  8  1  0
 22 18  1  0
 17 11  1  0
  1 23  1  0
  1 24  1  0
  1 25  1  0
  3 26  1  0
  3 27  1  0
  4 28  1  0
  5 29  1  0
  9 30  1  0
 10 31  1  0
 13 32  1  0
 14 33  1  0
 14 34  1  0
 15 35  1  0
 15 36  1  0
 16 37  1  0
 17 38  1  0
 17 39  1  0
 18 40  1  0
 19 41  1  0
 19 42  1  0
 20 43  1  0
 20 44  1  0
 21 45  1  0
 21 46  1  0
M  END
>  <Energy>  (1416) 
122.05475136350296

>  <compound_id>  (1416) 
37315

>  <target_id>  (1416) 
1

>  <reference_id>  (1416) 
28

>  <inspiration_ids>  (1416) 
[28, 146]

>  <energy_score>  (1416) 
12.92115268825188

>  <distance_score>  (1416) 
14.545683144993239

>  <path>  (1416) 
/opt/xchem-fragalysis-2/maxwin/BulkDock/SCRATCH/511021/C37315-P28/C37315-P28.minimised.mol

>  <scratch_subdir>  (1416) 
/opt/xchem-fragalysis-2/maxwin/BulkDock/SCRATCH/511021/C37315-P28

>  <fragmenstein_runtime>  (1416) 
26.741053104400635

>  <fragmenstein_outcome>  (1416) 
too moved

>  <fragmenstein_mode>  (1416) 
expansion

>  <fragmenstein_error>  (1416) 


$$$$
C37315-P146
     RDKit          3D

 46 48  0  0  0  0  0  0  0  0999 V2000
   -7.1516  -15.0788   15.0602 C   0  0  0  0  0  0  0  0  0  0  0  0
   -5.7637  -14.7546   15.1263 O   0  0  0  0  0  0  0  0  0  0  0  0
   -5.4363  -13.4764   15.7228 C   0  0  0  0  0  0  0  0  0  0  0  0
   -5.1791  -12.2076   14.7594 C   0  0  0  0  0  0  0  0  0  0  0  0
   -4.1730  -11.0993   15.2921 N   0  0  0  0  0  0  0  0  0  0  0  0
   -3.7405   -9.7983   14.6896 C   0  0  0  0  0  0  0  0  0  0  0  0
   -3.9905   -9.3143   13.6173 O   0  0  0  0  0  0  0  0  0  0  0  0
   -2.6700   -8.8511   15.4964 C   0  0  0  0  0  0  0  0  0  0  0  0
   -2.2112   -9.0150   16.8116 C   0  0  0  0  0  0  0  0  0  0  0  0
   -1.1468   -8.2204   17.3613 C   0  0  0  0  0  0  0  0  0  0  0  0
   -0.5445   -7.1576   16.6649 C   0  0  0  0  0  0  0  0  0  0  0  0
   -1.0541   -6.8634   15.4005 C   0  0  0  0  0  0  0  0  0  0  0  0
   -2.0699   -7.7204   14.8290 C   0  0  0  0  0  0  0  0  0  0  0  0
   -0.6314   -5.5552   14.7397 C   0  0  0  0  0  0  0  0  0  0  0  0
    0.6434   -4.9025   15.3260 C   0  0  0  0  0  0  0  0  0  0  0  0
    0.7017   -4.9819   16.7873 N   0  0  0  0  0  0  0  0  0  0  0  0
    0.6219   -6.3761   17.2442 C   0  0  0  0  0  0  0  0  0  0  0  0
   -4.9319  -12.6938   13.2938 C   0  0  0  0  0  0  0  0  0  0  0  0
   -3.8234  -13.7271   13.0881 C   0  0  0  0  0  0  0  0  0  0  0  0
   -4.4724  -14.8920   12.3761 C   0  0  0  0  0  0  0  0  0  0  0  0
   -5.7733  -14.3340   11.8598 C   0  0  0  0  0  0  0  0  0  0  0  0
   -6.1459  -13.2838   12.7563 O   0  0  0  0  0  0  0  0  0  0  0  0
   -7.7240  -14.2500   14.6350 H   0  0  0  0  0  0  0  0  0  0  0  0
   -7.5180  -15.3034   16.0654 H   0  0  0  0  0  0  0  0  0  0  0  0
   -7.2727  -15.9602   14.4265 H   0  0  0  0  0  0  0  0  0  0  0  0
   -6.1771  -13.2113   16.4870 H   0  0  0  0  0  0  0  0  0  0  0  0
   -4.4963  -13.6468   16.2611 H   0  0  0  0  0  0  0  0  0  0  0  0
   -6.1331  -11.6634   14.7377 H   0  0  0  0  0  0  0  0  0  0  0  0
   -3.8443  -11.1493   16.2448 H   0  0  0  0  0  0  0  0  0  0  0  0
   -2.6457   -9.7735   17.4591 H   0  0  0  0  0  0  0  0  0  0  0  0
   -0.8105   -8.4509   18.3734 H   0  0  0  0  0  0  0  0  0  0  0  0
   -2.4281   -7.4790   13.8248 H   0  0  0  0  0  0  0  0  0  0  0  0
   -1.4653   -4.8556   14.8895 H   0  0  0  0  0  0  0  0  0  0  0  0
   -0.5269   -5.6847   13.6579 H   0  0  0  0  0  0  0  0  0  0  0  0
    1.5525   -5.3395   14.9119 H   0  0  0  0  0  0  0  0  0  0  0  0
    0.6665   -3.8480   15.0268 H   0  0  0  0  0  0  0  0  0  0  0  0
   -0.1064   -4.4869   17.1675 H   0  0  0  0  0  0  0  0  0  0  0  0
    0.5353   -6.3604   18.3371 H   0  0  0  0  0  0  0  0  0  0  0  0
    1.5558   -6.8994   17.0115 H   0  0  0  0  0  0  0  0  0  0  0  0
   -4.7203  -11.8172   12.6699 H   0  0  0  0  0  0  0  0  0  0  0  0
   -3.3400  -14.0467   14.0150 H   0  0  0  0  0  0  0  0  0  0  0  0
   -3.0324  -13.2913   12.4656 H   0  0  0  0  0  0  0  0  0  0  0  0
   -3.8438  -15.2952   11.5777 H   0  0  0  0  0  0  0  0  0  0  0  0
   -4.6619  -15.7010   13.0880 H   0  0  0  0  0  0  0  0  0  0  0  0
   -5.6495  -13.9009   10.8614 H   0  0  0  0  0  0  0  0  0  0  0  0
   -6.5648  -15.0853   11.8207 H   0  0  0  0  0  0  0  0  0  0  0  0
  1  2  1  0
  2  3  1  0
  3  4  1  0
  4  5  1  0
  5  6  1  0
  6  7  2  0
  6  8  1  0
  8  9  2  0
  9 10  1  0
 10 11  2  0
 11 12  1  0
 12 13  2  0
 12 14  1  0
 14 15  1  0
 15 16  1  0
 16 17  1  0
  4 18  1  0
 18 19  1  0
 19 20  1  0
 20 21  1  0
 21 22  1  0
 13  8  1  0
 22 18  1  0
 17 11  1  0
  1 23  1  0
  1 24  1  0
  1 25  1  0
  3 26  1  0
  3 27  1  0
  4 28  1  0
  5 29  1  0
  9 30  1  0
 10 31  1  0
 13 32  1  0
 14 33  1  0
 14 34  1  0
 15 35  1  0
 15 36  1  0
 16 37  1  0
 17 38  1  0
 17 39  1  0
 18 40  1  0
 19 41  1  0
 19 42  1  0
 20 43  1  0
 20 44  1  0
 21 45  1  0
 21 46  1  0
M  END
>  <Energy>  (1417) 
122.95526205296764

>  <compound_id>  (1417) 
37315

>  <target_id>  (1417) 
1

>  <reference_id>  (1417) 
146

>  <inspiration_ids>  (1417) 
[28, 146]

>  <energy_score>  (1417) 
13.821663377719403

>  <distance_score>  (1417) 
14.701765589903612

>  <path>  (1417) 
/opt/xchem-fragalysis-2/maxwin/BulkDock/SCRATCH/511021/C37315-P146/C37315-P146.minimised.mol

>  <scratch_subdir>  (1417) 
/opt/xchem-fragalysis-2/maxwin/BulkDock/SCRATCH/511021/C37315-P146

>  <fragmenstein_runtime>  (1417) 
20.973669290542603

>  <fragmenstein_outcome>  (1417) 
too moved

>  <fragmenstein_mode>  (1417) 
expansion

>  <fragmenstein_error>  (1417) 


$$$$
C62449-P28
     RDKit          3D

 48 50  0  0  0  0  0  0  0  0999 V2000
    6.0928  -10.5438   14.0560 C   0  0  0  0  0  0  0  0  0  0  0  0
    7.8857  -10.1636   14.4701 O   0  0  0  0  0  0  0  0  0  0  0  0
    9.1189   -9.4534   15.6348 C   0  0  0  0  0  0  0  0  0  0  0  0
    9.8517   -7.5006   15.5156 C   0  0  0  0  0  0  0  0  0  0  0  0
   11.2418   -5.9475   16.0145 C   0  0  0  0  0  0  0  0  0  0  0  0
   11.7108   -4.5945   17.0320 N   0  0  0  0  0  0  0  0  0  0  0  0
   12.7825   -4.5025   18.1895 C   0  0  0  0  0  0  0  0  0  0  0  0
   13.4248   -5.3417   18.6869 O   0  0  0  0  0  0  0  0  0  0  0  0
   12.8237   -3.0910   18.3614 N   0  0  0  0  0  0  0  0  0  0  0  0
   13.6869   -2.3019   19.0718 C   0  0  0  0  0  0  0  0  0  0  0  0
   14.3212   -2.6451   20.2496 C   0  0  0  0  0  0  0  0  0  0  0  0
   15.5924   -2.1161   20.5131 C   0  0  0  0  0  0  0  0  0  0  0  0
   16.2739   -1.3386   19.5527 C   0  0  0  0  0  0  0  0  0  0  0  0
   15.6705   -1.0456   18.3310 C   0  0  0  0  0  0  0  0  0  0  0  0
   14.4038   -1.5498   18.1057 C   0  0  0  0  0  0  0  0  0  0  0  0
   16.3789   -0.3414   17.2048 C   0  0  0  0  0  0  0  0  0  0  0  0
   17.5631    0.4003   17.6349 N   0  0  0  0  0  0  0  0  0  0  0  0
   18.3891   -0.4521   18.4953 C   0  0  0  0  0  0  0  0  0  0  0  0
   17.6622   -0.8128   19.8024 C   0  0  0  0  0  0  0  0  0  0  0  0
   12.8134   -5.8451   15.5795 C   0  0  0  0  0  0  0  0  0  0  0  0
   13.3465   -4.4362   15.1329 C   0  0  0  0  0  0  0  0  0  0  0  0
   12.2101   -3.6050   14.9454 O   0  0  0  0  0  0  0  0  0  0  0  0
   11.0791   -4.5281   14.8691 C   0  0  0  0  0  0  0  0  0  0  0  0
    5.3605   -9.7764   14.2602 H   0  0  0  0  0  0  0  0  0  0  0  0
    5.7466  -11.5766   14.2034 H   0  0  0  0  0  0  0  0  0  0  0  0
    5.9724  -10.6862   13.0071 H   0  0  0  0  0  0  0  0  0  0  0  0
    8.8892   -9.8922   16.6114 H   0  0  0  0  0  0  0  0  0  0  0  0
    9.9534  -10.0764   15.2600 H   0  0  0  0  0  0  0  0  0  0  0  0
    9.1072   -7.0080   14.9259 H   0  0  0  0  0  0  0  0  0  0  0  0
   10.5243   -8.3585   15.3867 H   0  0  0  0  0  0  0  0  0  0  0  0
   11.4023   -3.6744   16.7841 H   0  0  0  0  0  0  0  0  0  0  0  0
   12.1908   -2.6669   17.7188 H   0  0  0  0  0  0  0  0  0  0  0  0
   13.8748   -3.3671   20.9277 H   0  0  0  0  0  0  0  0  0  0  0  0
   16.0846   -2.3751   21.4483 H   0  0  0  0  0  0  0  0  0  0  0  0
   13.9875   -1.4252   17.1032 H   0  0  0  0  0  0  0  0  0  0  0  0
   16.6665   -1.0865   16.4520 H   0  0  0  0  0  0  0  0  0  0  0  0
   15.6940    0.3666   16.7252 H   0  0  0  0  0  0  0  0  0  0  0  0
   18.0978    0.6677   16.8109 H   0  0  0  0  0  0  0  0  0  0  0  0
   19.3146    0.0802   18.7423 H   0  0  0  0  0  0  0  0  0  0  0  0
   18.6821   -1.3623   17.9558 H   0  0  0  0  0  0  0  0  0  0  0  0
   17.5839    0.0768   20.4396 H   0  0  0  0  0  0  0  0  0  0  0  0
   18.2550   -1.5615   20.3407 H   0  0  0  0  0  0  0  0  0  0  0  0
   13.2842   -5.7094   16.5038 H   0  0  0  0  0  0  0  0  0  0  0  0
   13.3782   -6.7301   15.3769 H   0  0  0  0  0  0  0  0  0  0  0  0
   13.9825   -3.9671   15.8959 H   0  0  0  0  0  0  0  0  0  0  0  0
   13.9728   -4.3758   14.2586 H   0  0  0  0  0  0  0  0  0  0  0  0
   11.1044   -4.7288   13.8331 H   0  0  0  0  0  0  0  0  0  0  0  0
   10.2190   -3.8911   15.0939 H   0  0  0  0  0  0  0  0  0  0  0  0
  1  2  1  0
  2  3  1  0
  3  4  1  0
  4  5  1  0
  5  6  1  0
  6  7  1  0
  7  8  2  0
  7  9  1  0
  9 10  1  0
 10 11  2  0
 11 12  1  0
 12 13  2  0
 13 14  1  0
 14 15  2  0
 14 16  1  0
 16 17  1  0
 17 18  1  0
 18 19  1  0
  5 20  1  0
 20 21  1  0
 21 22  1  0
 22 23  1  0
 23  5  1  0
 15 10  1  0
 19 13  1  0
  1 24  1  0
  1 25  1  0
  1 26  1  0
  3 27  1  0
  3 28  1  0
  4 29  1  0
  4 30  1  0
  6 31  1  0
  9 32  1  0
 11 33  1  0
 12 34  1  0
 15 35  1  0
 16 36  1  0
 16 37  1  0
 17 38  1  0
 18 39  1  0
 18 40  1  0
 19 41  1  0
 19 42  1  0
 20 43  1  0
 20 44  1  0
 21 45  1  0
 21 46  1  0
 23 47  1  0
 23 48  1  0
M  END
>  <Energy>  (1418) 
644.66775931306165

>  <compound_id>  (1418) 
62449

>  <target_id>  (1418) 
1

>  <reference_id>  (1418) 
28

>  <inspiration_ids>  (1418) 
[28, 146]

>  <energy_score>  (1418) 
609.8759385624193

>  <distance_score>  (1418) 
12.444450080472173

>  <path>  (1418) 
/opt/xchem-fragalysis-2/maxwin/BulkDock/SCRATCH/511021/C62449-P28/C62449-P28.minimised.mol

>  <scratch_subdir>  (1418) 
/opt/xchem-fragalysis-2/maxwin/BulkDock/SCRATCH/511021/C62449-P28

>  <fragmenstein_runtime>  (1418) 
9.585201740264893

>  <fragmenstein_outcome>  (1418) 
too moved

>  <fragmenstein_mode>  (1418) 
expansion

>  <fragmenstein_error>  (1418) 


$$$$
C62449-P146
     RDKit          3D

 48 50  0  0  0  0  0  0  0  0999 V2000
    5.9437  -12.2022   13.7893 C   0  0  0  0  0  0  0  0  0  0  0  0
    6.8249  -13.3773   13.7364 O   0  0  0  0  0  0  0  0  0  0  0  0
    7.9239  -13.8810   14.8980 C   0  0  0  0  0  0  0  0  0  0  0  0
    9.4938  -12.9236   15.5663 C   0  0  0  0  0  0  0  0  0  0  0  0
   11.0546  -13.3623   16.2477 C   0  0  0  0  0  0  0  0  0  0  0  0
   11.9998  -12.1242   16.1975 N   0  0  0  0  0  0  0  0  0  0  0  0
   13.5374  -12.0139   16.4174 C   0  0  0  0  0  0  0  0  0  0  0  0
   14.3305  -12.8630   16.5920 O   0  0  0  0  0  0  0  0  0  0  0  0
   13.7280  -10.5306   16.2475 N   0  0  0  0  0  0  0  0  0  0  0  0
   14.8943   -9.7322   16.3422 C   0  0  0  0  0  0  0  0  0  0  0  0
   16.1595  -10.2362   16.6018 C   0  0  0  0  0  0  0  0  0  0  0  0
   17.2592   -9.3648   16.7527 C   0  0  0  0  0  0  0  0  0  0  0  0
   17.0973   -7.9722   16.7287 C   0  0  0  0  0  0  0  0  0  0  0  0
   15.8219   -7.4572   16.5374 C   0  0  0  0  0  0  0  0  0  0  0  0
   14.7846   -8.3468   16.2321 C   0  0  0  0  0  0  0  0  0  0  0  0
   15.5724   -5.9893   16.7773 C   0  0  0  0  0  0  0  0  0  0  0  0
   16.6609   -5.1657   16.2365 N   0  0  0  0  0  0  0  0  0  0  0  0
   17.8891   -5.5377   16.9558 C   0  0  0  0  0  0  0  0  0  0  0  0
   18.2730   -7.0251   16.7955 C   0  0  0  0  0  0  0  0  0  0  0  0
   11.7576  -14.6238   15.7223 C   0  0  0  0  0  0  0  0  0  0  0  0
   12.6676  -15.1432   16.8301 C   0  0  0  0  0  0  0  0  0  0  0  0
   12.4062  -14.3545   17.9813 O   0  0  0  0  0  0  0  0  0  0  0  0
   11.1329  -13.7470   17.7464 C   0  0  0  0  0  0  0  0  0  0  0  0
    5.7368  -11.7417   12.8887 H   0  0  0  0  0  0  0  0  0  0  0  0
    5.1231  -12.2761   14.4670 H   0  0  0  0  0  0  0  0  0  0  0  0
    6.2963  -11.1840   13.9940 H   0  0  0  0  0  0  0  0  0  0  0  0
    7.7347  -14.9099   15.3275 H   0  0  0  0  0  0  0  0  0  0  0  0
    8.3113  -14.4241   14.1935 H   0  0  0  0  0  0  0  0  0  0  0  0
    9.7007  -12.1260   14.8547 H   0  0  0  0  0  0  0  0  0  0  0  0
    9.1295  -12.2578   16.3510 H   0  0  0  0  0  0  0  0  0  0  0  0
   11.6010  -11.2043   16.1614 H   0  0  0  0  0  0  0  0  0  0  0  0
   12.8343  -10.0856   16.1991 H   0  0  0  0  0  0  0  0  0  0  0  0
   16.3232  -11.3078   16.6847 H   0  0  0  0  0  0  0  0  0  0  0  0
   18.2474   -9.7947   16.9047 H   0  0  0  0  0  0  0  0  0  0  0  0
   13.8377   -7.9316   15.9428 H   0  0  0  0  0  0  0  0  0  0  0  0
   14.6185   -5.6641   16.3656 H   0  0  0  0  0  0  0  0  0  0  0  0
   15.4758   -5.8239   17.8592 H   0  0  0  0  0  0  0  0  0  0  0  0
   16.7797   -5.4468   15.2619 H   0  0  0  0  0  0  0  0  0  0  0  0
   17.7676   -5.3026   18.0214 H   0  0  0  0  0  0  0  0  0  0  0  0
   18.7173   -4.9126   16.6029 H   0  0  0  0  0  0  0  0  0  0  0  0
   18.9347   -7.3148   17.6200 H   0  0  0  0  0  0  0  0  0  0  0  0
   18.8346   -7.1386   15.8592 H   0  0  0  0  0  0  0  0  0  0  0  0
   11.0289  -15.4135   15.5120 H   0  0  0  0  0  0  0  0  0  0  0  0
   12.3870  -14.5070   14.8504 H   0  0  0  0  0  0  0  0  0  0  0  0
   12.4263  -16.1867   17.0640 H   0  0  0  0  0  0  0  0  0  0  0  0
   13.7294  -15.1178   16.5744 H   0  0  0  0  0  0  0  0  0  0  0  0
   10.3993  -14.5190   18.0072 H   0  0  0  0  0  0  0  0  0  0  0  0
   11.0809  -12.8889   18.4246 H   0  0  0  0  0  0  0  0  0  0  0  0
  1  2  1  0
  2  3  1  0
  3  4  1  0
  4  5  1  0
  5  6  1  0
  6  7  1  0
  7  8  2  0
  7  9  1  0
  9 10  1  0
 10 11  2  0
 11 12  1  0
 12 13  2  0
 13 14  1  0
 14 15  2  0
 14 16  1  0
 16 17  1  0
 17 18  1  0
 18 19  1  0
  5 20  1  0
 20 21  1  0
 21 22  1  0
 22 23  1  0
 23  5  1  0
 15 10  1  0
 19 13  1  0
  1 24  1  0
  1 25  1  0
  1 26  1  0
  3 27  1  0
  3 28  1  0
  4 29  1  0
  4 30  1  0
  6 31  1  0
  9 32  1  0
 11 33  1  0
 12 34  1  0
 15 35  1  0
 16 36  1  0
 16 37  1  0
 17 38  1  0
 18 39  1  0
 18 40  1  0
 19 41  1  0
 19 42  1  0
 20 43  1  0
 20 44  1  0
 21 45  1  0
 21 46  1  0
 23 47  1  0
 23 48  1  0
M  END
>  <Energy>  (1419) 
194.76733947018644

>  <compound_id>  (1419) 
62449

>  <target_id>  (1419) 
1

>  <reference_id>  (1419) 
146

>  <inspiration_ids>  (1419) 
[28, 146]

>  <energy_score>  (1419) 
159.97551871954784

>  <distance_score>  (1419) 
13.893846783992668

>  <path>  (1419) 
/opt/xchem-fragalysis-2/maxwin/BulkDock/SCRATCH/511021/C62449-P146/C62449-P146.minimised.mol

>  <scratch_subdir>  (1419) 
/opt/xchem-fragalysis-2/maxwin/BulkDock/SCRATCH/511021/C62449-P146

>  <fragmenstein_runtime>  (1419) 
12.930919408798218

>  <fragmenstein_outcome>  (1419) 
too moved

>  <fragmenstein_mode>  (1419) 
expansion

>  <fragmenstein_error>  (1419) 


$$$$
C62450-P28
     RDKit          3D

 43 45  0  0  0  0  0  0  0  0999 V2000
    0.1011  -16.7632   18.9562 O   0  0  0  0  0  0  0  0  0  0  0  0
    0.7231  -15.9507   18.2938 C   0  0  0  0  0  0  0  0  0  0  0  0
    2.0278  -16.1738   17.9258 O   0  0  0  0  0  0  0  0  0  0  0  0
    0.1384  -14.3036   17.4857 C   0  0  0  0  0  0  0  0  0  0  0  0
    1.9284  -13.7276   17.6355 N   0  0  0  0  0  0  0  0  0  0  0  0
    3.1776  -12.2674   17.8387 C   0  0  0  0  0  0  0  0  0  0  0  0
    3.2654  -10.5857   17.1138 C   0  0  0  0  0  0  0  0  0  0  0  0
    3.0100   -9.2625   17.7906 C   0  0  0  0  0  0  0  0  0  0  0  0
    3.2229   -7.9998   17.2081 C   0  0  0  0  0  0  0  0  0  0  0  0
    3.5938   -7.9709   15.8701 C   0  0  0  0  0  0  0  0  0  0  0  0
    3.8313   -9.2721   15.0846 C   0  0  0  0  0  0  0  0  0  0  0  0
    3.8086  -10.4814   15.7773 C   0  0  0  0  0  0  0  0  0  0  0  0
    4.7783   -9.2133   13.7285 C   0  0  0  0  0  0  0  0  0  0  0  0
    5.1219   -7.7796   13.3262 C   0  0  0  0  0  0  0  0  0  0  0  0
    5.1729   -6.8724   14.4575 N   0  0  0  0  0  0  0  0  0  0  0  0
    3.9785   -6.6666   15.2313 C   0  0  0  0  0  0  0  0  0  0  0  0
   -1.8040  -14.2248   17.9355 C   0  0  0  0  0  0  0  0  0  0  0  0
   -3.2051  -14.6901   17.2088 C   0  0  0  0  0  0  0  0  0  0  0  0
   -4.3298  -14.3655   18.1499 C   0  0  0  0  0  0  0  0  0  0  0  0
   -3.8586  -14.9991   19.3142 O   0  0  0  0  0  0  0  0  0  0  0  0
   -2.4266  -14.7682   19.3455 C   0  0  0  0  0  0  0  0  0  0  0  0
    2.2845  -17.0806   18.1578 H   0  0  0  0  0  0  0  0  0  0  0  0
    0.0540  -13.3026   17.7767 H   0  0  0  0  0  0  0  0  0  0  0  0
    2.4937  -14.4363   17.1459 H   0  0  0  0  0  0  0  0  0  0  0  0
    4.0076  -12.3356   17.2356 H   0  0  0  0  0  0  0  0  0  0  0  0
    3.8539  -12.6451   18.6371 H   0  0  0  0  0  0  0  0  0  0  0  0
    2.5462   -9.1942   18.7661 H   0  0  0  0  0  0  0  0  0  0  0  0
    3.0467   -7.0944   17.7782 H   0  0  0  0  0  0  0  0  0  0  0  0
    4.2088  -11.3425   15.2759 H   0  0  0  0  0  0  0  0  0  0  0  0
    4.3279   -9.7109   12.8789 H   0  0  0  0  0  0  0  0  0  0  0  0
    5.6988   -9.7852   13.8923 H   0  0  0  0  0  0  0  0  0  0  0  0
    4.4207   -7.3886   12.5812 H   0  0  0  0  0  0  0  0  0  0  0  0
    6.0913   -7.8003   12.8171 H   0  0  0  0  0  0  0  0  0  0  0  0
    5.9503   -7.1260   15.0562 H   0  0  0  0  0  0  0  0  0  0  0  0
    3.1624   -6.2479   14.6328 H   0  0  0  0  0  0  0  0  0  0  0  0
    4.1994   -5.9209   16.0043 H   0  0  0  0  0  0  0  0  0  0  0  0
   -1.9672  -13.1327   17.8822 H   0  0  0  0  0  0  0  0  0  0  0  0
   -3.3261  -15.7797   17.1358 H   0  0  0  0  0  0  0  0  0  0  0  0
   -3.3949  -14.2920   16.2330 H   0  0  0  0  0  0  0  0  0  0  0  0
   -5.2860  -14.7990   17.8448 H   0  0  0  0  0  0  0  0  0  0  0  0
   -4.4567  -13.2986   18.3477 H   0  0  0  0  0  0  0  0  0  0  0  0
   -1.9988  -15.7258   19.6458 H   0  0  0  0  0  0  0  0  0  0  0  0
   -2.3704  -14.0048   20.1269 H   0  0  0  0  0  0  0  0  0  0  0  0
  1  2  2  0
  2  3  1  0
  2  4  1  0
  4  5  1  0
  5  6  1  0
  6  7  1  0
  7  8  2  0
  8  9  1  0
  9 10  2  0
 10 11  1  0
 11 12  2  0
 11 13  1  0
 13 14  1  0
 14 15  1  0
 15 16  1  0
  4 17  1  0
 17 18  1  0
 18 19  1  0
 19 20  1  0
 20 21  1  0
 12  7  1  0
 21 17  1  0
 16 10  1  0
  3 22  1  0
  4 23  1  0
  5 24  1  0
  6 25  1  0
  6 26  1  0
  8 27  1  0
  9 28  1  0
 12 29  1  0
 13 30  1  0
 13 31  1  0
 14 32  1  0
 14 33  1  0
 15 34  1  0
 16 35  1  0
 16 36  1  0
 17 37  1  0
 18 38  1  0
 18 39  1  0
 19 40  1  0
 19 41  1  0
 21 42  1  0
 21 43  1  0
M  END
>  <Energy>  (1420) 
499.44539309232744

>  <compound_id>  (1420) 
62450

>  <target_id>  (1420) 
1

>  <reference_id>  (1420) 
28

>  <inspiration_ids>  (1420) 
[28, 146]

>  <energy_score>  (1420) 
393.3565982518378

>  <distance_score>  (1420) 
12.996514263870932

>  <path>  (1420) 
/opt/xchem-fragalysis-2/maxwin/BulkDock/SCRATCH/511021/C62450-P28/C62450-P28.minimised.mol

>  <scratch_subdir>  (1420) 
/opt/xchem-fragalysis-2/maxwin/BulkDock/SCRATCH/511021/C62450-P28

>  <fragmenstein_runtime>  (1420) 
25.80050539970398

>  <fragmenstein_outcome>  (1420) 
too moved

>  <fragmenstein_mode>  (1420) 
expansion

>  <fragmenstein_error>  (1420) 


$$$$
C62450-P146
     RDKit          3D

 43 45  0  0  0  0  0  0  0  0999 V2000
   -1.5354  -11.1640   17.6804 O   0  0  0  0  0  0  0  0  0  0  0  0
   -1.1704  -12.2262   18.1692 C   0  0  0  0  0  0  0  0  0  0  0  0
   -1.8033  -12.4338   19.3536 O   0  0  0  0  0  0  0  0  0  0  0  0
   -0.0361  -13.5591   17.4734 C   0  0  0  0  0  0  0  0  0  0  0  0
    1.6840  -13.4611   16.5210 N   0  0  0  0  0  0  0  0  0  0  0  0
    3.2147  -12.0440   16.5805 C   0  0  0  0  0  0  0  0  0  0  0  0
    3.6496  -10.6653   16.0368 C   0  0  0  0  0  0  0  0  0  0  0  0
    3.0670   -9.3661   17.1579 C   0  0  0  0  0  0  0  0  0  0  0  0
    2.9388   -7.7654   16.5766 C   0  0  0  0  0  0  0  0  0  0  0  0
    3.6368   -7.2742   15.0795 C   0  0  0  0  0  0  0  0  0  0  0  0
    4.2685   -8.5203   13.8648 C   0  0  0  0  0  0  0  0  0  0  0  0
    4.2002  -10.3320   14.2466 C   0  0  0  0  0  0  0  0  0  0  0  0
    4.9652   -7.8473   12.6787 C   0  0  0  0  0  0  0  0  0  0  0  0
    4.3573   -6.4196   12.2701 C   0  0  0  0  0  0  0  0  0  0  0  0
    3.8305   -5.3827   13.2681 N   0  0  0  0  0  0  0  0  0  0  0  0
    3.7785   -5.7393   14.7466 C   0  0  0  0  0  0  0  0  0  0  0  0
   -1.2487  -14.7998   17.8753 C   0  0  0  0  0  0  0  0  0  0  0  0
   -2.7012  -14.6412   17.4151 C   0  0  0  0  0  0  0  0  0  0  0  0
   -3.6074  -15.7814   17.8576 C   0  0  0  0  0  0  0  0  0  0  0  0
   -2.9578  -16.3408   18.9717 O   0  0  0  0  0  0  0  0  0  0  0  0
   -1.8062  -15.5033   19.2384 C   0  0  0  0  0  0  0  0  0  0  0  0
   -2.2854  -11.5848   19.4690 H   0  0  0  0  0  0  0  0  0  0  0  0
    0.6979  -13.8172   18.1778 H   0  0  0  0  0  0  0  0  0  0  0  0
    1.4674  -13.2777   15.5574 H   0  0  0  0  0  0  0  0  0  0  0  0
    3.7059  -12.2829   17.5389 H   0  0  0  0  0  0  0  0  0  0  0  0
    3.9469  -12.2251   15.7795 H   0  0  0  0  0  0  0  0  0  0  0  0
    2.6563   -9.5953   18.1291 H   0  0  0  0  0  0  0  0  0  0  0  0
    2.5588   -6.9995   17.2518 H   0  0  0  0  0  0  0  0  0  0  0  0
    4.9840  -10.9451   13.8085 H   0  0  0  0  0  0  0  0  0  0  0  0
    4.8833   -8.5113   11.8106 H   0  0  0  0  0  0  0  0  0  0  0  0
    6.0252   -7.7670   12.9159 H   0  0  0  0  0  0  0  0  0  0  0  0
    3.4975   -6.6337   11.6159 H   0  0  0  0  0  0  0  0  0  0  0  0
    5.0282   -5.9303   11.5670 H   0  0  0  0  0  0  0  0  0  0  0  0
    4.1807   -4.4445   13.0918 H   0  0  0  0  0  0  0  0  0  0  0  0
    2.8786   -5.2476   15.1378 H   0  0  0  0  0  0  0  0  0  0  0  0
    4.6020   -5.3358   15.3441 H   0  0  0  0  0  0  0  0  0  0  0  0
   -0.4840  -15.5250   17.7359 H   0  0  0  0  0  0  0  0  0  0  0  0
   -2.8429  -14.5447   16.3671 H   0  0  0  0  0  0  0  0  0  0  0  0
   -3.1141  -13.7784   17.9362 H   0  0  0  0  0  0  0  0  0  0  0  0
   -4.6012  -15.4225   18.1445 H   0  0  0  0  0  0  0  0  0  0  0  0
   -3.7402  -16.5487   17.0918 H   0  0  0  0  0  0  0  0  0  0  0  0
   -1.0833  -16.2122   19.6548 H   0  0  0  0  0  0  0  0  0  0  0  0
   -2.1715  -14.7876   19.9821 H   0  0  0  0  0  0  0  0  0  0  0  0
  1  2  2  0
  2  3  1  0
  2  4  1  0
  4  5  1  0
  5  6  1  0
  6  7  1  0
  7  8  2  0
  8  9  1  0
  9 10  2  0
 10 11  1  0
 11 12  2  0
 11 13  1  0
 13 14  1  0
 14 15  1  0
 15 16  1  0
  4 17  1  0
 17 18  1  0
 18 19  1  0
 19 20  1  0
 20 21  1  0
 12  7  1  0
 21 17  1  0
 16 10  1  0
  3 22  1  0
  4 23  1  0
  5 24  1  0
  6 25  1  0
  6 26  1  0
  8 27  1  0
  9 28  1  0
 12 29  1  0
 13 30  1  0
 13 31  1  0
 14 32  1  0
 14 33  1  0
 15 34  1  0
 16 35  1  0
 16 36  1  0
 17 37  1  0
 18 38  1  0
 18 39  1  0
 19 40  1  0
 19 41  1  0
 21 42  1  0
 21 43  1  0
M  END
>  <Energy>  (1421) 
745.03854228519924

>  <compound_id>  (1421) 
62450

>  <target_id>  (1421) 
1

>  <reference_id>  (1421) 
146

>  <inspiration_ids>  (1421) 
[28, 146]

>  <energy_score>  (1421) 
638.9497474447094

>  <distance_score>  (1421) 
13.126300628516818

>  <path>  (1421) 
/opt/xchem-fragalysis-2/maxwin/BulkDock/SCRATCH/511021/C62450-P146/C62450-P146.minimised.mol

>  <scratch_subdir>  (1421) 
/opt/xchem-fragalysis-2/maxwin/BulkDock/SCRATCH/511021/C62450-P146

>  <fragmenstein_runtime>  (1421) 
16.011358976364136

>  <fragmenstein_outcome>  (1421) 
too moved

>  <fragmenstein_mode>  (1421) 
expansion

>  <fragmenstein_error>  (1421) 


$$$$
C62451-P28
     RDKit          3D

 36 38  0  0  0  0  0  0  0  0999 V2000
   -1.1300  -13.9184   16.2529 O   0  0  0  0  0  0  0  0  0  0  0  0
   -1.2733  -14.1748   15.0652 C   0  0  0  0  0  0  0  0  0  0  0  0
    0.1961  -13.5803   13.8520 N   0  0  0  0  0  0  0  0  0  0  0  0
    1.8518  -12.4699   14.2711 C   0  0  0  0  0  0  0  0  0  0  0  0
    3.6037  -11.5625   15.2604 C   0  0  0  0  0  0  0  0  0  0  0  0
    4.8712  -11.8772   14.5552 C   0  0  0  0  0  0  0  0  0  0  0  0
    5.7930  -11.4986   13.6612 C   0  0  0  0  0  0  0  0  0  0  0  0
    5.8194  -10.2715   13.9037 C   0  0  0  0  0  0  0  0  0  0  0  0
    4.6883   -9.5526   13.9197 C   0  0  0  0  0  0  0  0  0  0  0  0
    3.7189  -10.3208   14.5158 C   0  0  0  0  0  0  0  0  0  0  0  0
    4.8487   -7.9704   13.8294 C   0  0  0  0  0  0  0  0  0  0  0  0
    6.4688   -7.8228   14.1569 N   0  0  0  0  0  0  0  0  0  0  0  0
    7.0991   -9.5564   13.9846 C   0  0  0  0  0  0  0  0  0  0  0  0
   -3.1535  -15.0460   14.8097 C   0  0  0  0  0  0  0  0  0  0  0  0
   -4.3529  -15.5021   13.6612 C   0  0  0  0  0  0  0  0  0  0  0  0
   -5.6957  -15.6101   14.3090 C   0  0  0  0  0  0  0  0  0  0  0  0
   -5.4834  -15.5316   15.7171 O   0  0  0  0  0  0  0  0  0  0  0  0
   -4.1056  -15.2433   16.0871 C   0  0  0  0  0  0  0  0  0  0  0  0
   -0.0800  -13.7731   12.8940 H   0  0  0  0  0  0  0  0  0  0  0  0
    1.4343  -11.6832   13.7343 H   0  0  0  0  0  0  0  0  0  0  0  0
    1.7255  -12.5987   15.3482 H   0  0  0  0  0  0  0  0  0  0  0  0
    5.1590  -12.8116   14.2225 H   0  0  0  0  0  0  0  0  0  0  0  0
    6.6031  -12.1716   13.3952 H   0  0  0  0  0  0  0  0  0  0  0  0
    3.0394  -10.3984   13.7075 H   0  0  0  0  0  0  0  0  0  0  0  0
    4.5632   -7.2387   13.0766 H   0  0  0  0  0  0  0  0  0  0  0  0
    4.0752   -7.4529   14.4186 H   0  0  0  0  0  0  0  0  0  0  0  0
    6.9273   -7.5152   13.3000 H   0  0  0  0  0  0  0  0  0  0  0  0
    8.1494  -10.1851   14.1999 H   0  0  0  0  0  0  0  0  0  0  0  0
    7.8644   -9.7522   15.0786 H   0  0  0  0  0  0  0  0  0  0  0  0
   -2.8789  -16.1162   14.8841 H   0  0  0  0  0  0  0  0  0  0  0  0
   -4.1937  -16.5420   13.3796 H   0  0  0  0  0  0  0  0  0  0  0  0
   -4.3693  -14.9137   12.7360 H   0  0  0  0  0  0  0  0  0  0  0  0
   -6.1760  -16.5210   13.9550 H   0  0  0  0  0  0  0  0  0  0  0  0
   -6.4217  -14.8514   13.9957 H   0  0  0  0  0  0  0  0  0  0  0  0
   -4.0734  -14.4279   16.8029 H   0  0  0  0  0  0  0  0  0  0  0  0
   -3.8090  -16.1145   16.6819 H   0  0  0  0  0  0  0  0  0  0  0  0
  1  2  2  0
  2  3  1  0
  3  4  1  0
  4  5  1  0
  5  6  2  0
  6  7  1  0
  7  8  2  0
  8  9  1  0
  9 10  2  0
  9 11  1  0
 11 12  1  0
 12 13  1  0
  2 14  1  0
 14 15  1  0
 15 16  1  0
 16 17  1  0
 17 18  1  0
 10  5  1  0
 18 14  1  0
 13  8  1  0
  3 19  1  0
  4 20  1  0
  4 21  1  0
  6 22  1  0
  7 23  1  0
 10 24  1  0
 11 25  1  0
 11 26  1  0
 12 27  1  0
 13 28  1  0
 13 29  1  0
 14 30  1  0
 15 31  1  0
 15 32  1  0
 16 33  1  0
 16 34  1  0
 18 35  1  0
 18 36  1  0
M  END
>  <Energy>  (1422) 
952.59468943102104

>  <compound_id>  (1422) 
62451

>  <target_id>  (1422) 
1

>  <reference_id>  (1422) 
28

>  <inspiration_ids>  (1422) 
[28, 146]

>  <energy_score>  (1422) 
927.7340295751983

>  <distance_score>  (1422) 
11.070011103231453

>  <path>  (1422) 
/opt/xchem-fragalysis-2/maxwin/BulkDock/SCRATCH/511021/C62451-P28/C62451-P28.minimised.mol

>  <scratch_subdir>  (1422) 
/opt/xchem-fragalysis-2/maxwin/BulkDock/SCRATCH/511021/C62451-P28

>  <fragmenstein_runtime>  (1422) 
13.883534669876099

>  <fragmenstein_outcome>  (1422) 
too moved

>  <fragmenstein_mode>  (1422) 
expansion

>  <fragmenstein_error>  (1422) 


$$$$
C62451-P146
     RDKit          3D

 36 38  0  0  0  0  0  0  0  0999 V2000
    0.1756  -12.6233   12.7711 O   0  0  0  0  0  0  0  0  0  0  0  0
    0.7677  -12.9995   11.8000 C   0  0  0  0  0  0  0  0  0  0  0  0
    2.1149  -12.1988   11.0732 N   0  0  0  0  0  0  0  0  0  0  0  0
    3.0864  -10.7002   11.6148 C   0  0  0  0  0  0  0  0  0  0  0  0
    4.0717   -9.8973   13.2124 C   0  0  0  0  0  0  0  0  0  0  0  0
    4.1712   -8.2219   13.0431 C   0  0  0  0  0  0  0  0  0  0  0  0
    5.3333   -7.1819   13.1932 C   0  0  0  0  0  0  0  0  0  0  0  0
    6.7013   -7.6217   13.3819 C   0  0  0  0  0  0  0  0  0  0  0  0
    6.1402   -8.2443   14.2624 C   0  0  0  0  0  0  0  0  0  0  0  0
    5.1906   -9.8381   13.9660 C   0  0  0  0  0  0  0  0  0  0  0  0
    5.9915   -6.6902   15.5745 C   0  0  0  0  0  0  0  0  0  0  0  0
    7.2445   -6.2703   15.8322 N   0  0  0  0  0  0  0  0  0  0  0  0
    8.1020   -6.9050   14.7499 C   0  0  0  0  0  0  0  0  0  0  0  0
    0.1068  -14.7234   11.2702 C   0  0  0  0  0  0  0  0  0  0  0  0
    0.9315  -16.0333   10.8544 C   0  0  0  0  0  0  0  0  0  0  0  0
    0.0595  -17.1735   10.3576 C   0  0  0  0  0  0  0  0  0  0  0  0
   -1.2864  -16.7710   10.4425 O   0  0  0  0  0  0  0  0  0  0  0  0
   -1.3535  -15.3661   10.7982 C   0  0  0  0  0  0  0  0  0  0  0  0
    2.4729  -12.7662   10.3244 H   0  0  0  0  0  0  0  0  0  0  0  0
    3.8359  -10.8068   10.8221 H   0  0  0  0  0  0  0  0  0  0  0  0
    2.3709  -10.0135   11.1791 H   0  0  0  0  0  0  0  0  0  0  0  0
    3.5939   -7.8495   12.1288 H   0  0  0  0  0  0  0  0  0  0  0  0
    5.1121   -6.3789   12.4494 H   0  0  0  0  0  0  0  0  0  0  0  0
    5.8154  -10.7472   13.8696 H   0  0  0  0  0  0  0  0  0  0  0  0
    5.1377   -6.0134   15.3615 H   0  0  0  0  0  0  0  0  0  0  0  0
    5.7264   -6.9710   16.6212 H   0  0  0  0  0  0  0  0  0  0  0  0
    7.4744   -5.3417   16.1220 H   0  0  0  0  0  0  0  0  0  0  0  0
    9.0404   -7.4380   14.9997 H   0  0  0  0  0  0  0  0  0  0  0  0
    8.5078   -5.9456   14.4218 H   0  0  0  0  0  0  0  0  0  0  0  0
   -0.0013  -14.9429   12.3278 H   0  0  0  0  0  0  0  0  0  0  0  0
    1.7883  -15.9453   10.1792 H   0  0  0  0  0  0  0  0  0  0  0  0
    1.3689  -16.4302   11.7207 H   0  0  0  0  0  0  0  0  0  0  0  0
    0.2942  -17.4284    9.3183 H   0  0  0  0  0  0  0  0  0  0  0  0
    0.2058  -18.0932   10.9332 H   0  0  0  0  0  0  0  0  0  0  0  0
   -1.9118  -14.9974    9.9626 H   0  0  0  0  0  0  0  0  0  0  0  0
   -2.2345  -15.2138   11.3765 H   0  0  0  0  0  0  0  0  0  0  0  0
  1  2  2  0
  2  3  1  0
  3  4  1  0
  4  5  1  0
  5  6  2  0
  6  7  1  0
  7  8  2  0
  8  9  1  0
  9 10  2  0
  9 11  1  0
 11 12  1  0
 12 13  1  0
  2 14  1  0
 14 15  1  0
 15 16  1  0
 16 17  1  0
 17 18  1  0
 10  5  1  0
 18 14  1  0
 13  8  1  0
  3 19  1  0
  4 20  1  0
  4 21  1  0
  6 22  1  0
  7 23  1  0
 10 24  1  0
 11 25  1  0
 11 26  1  0
 12 27  1  0
 13 28  1  0
 13 29  1  0
 14 30  1  0
 15 31  1  0
 15 32  1  0
 16 33  1  0
 16 34  1  0
 18 35  1  0
 18 36  1  0
M  END
>  <Energy>  (1423) 
790.86226356886925

>  <compound_id>  (1423) 
62451

>  <target_id>  (1423) 
1

>  <reference_id>  (1423) 
146

>  <inspiration_ids>  (1423) 
[28, 146]

>  <energy_score>  (1423) 
766.0016037130528

>  <distance_score>  (1423) 
10.921474586878093

>  <path>  (1423) 
/opt/xchem-fragalysis-2/maxwin/BulkDock/SCRATCH/511021/C62451-P146/C62451-P146.minimised.mol

>  <scratch_subdir>  (1423) 
/opt/xchem-fragalysis-2/maxwin/BulkDock/SCRATCH/511021/C62451-P146

>  <fragmenstein_runtime>  (1423) 
12.798215389251709

>  <fragmenstein_outcome>  (1423) 
too moved

>  <fragmenstein_mode>  (1423) 
expansion

>  <fragmenstein_error>  (1423) 


$$$$
C62452-P28
     RDKit          3D

 33 35  0  0  0  0  0  0  0  0999 V2000
    6.6856   -7.7007    8.3604 C   0  0  0  0  0  0  0  0  0  0  0  0
    7.0346   -6.4257    7.9002 C   0  0  0  0  0  0  0  0  0  0  0  0
    6.1310   -5.3697    8.0323 C   0  0  0  0  0  0  0  0  0  0  0  0
    4.9421   -5.5562    8.7526 C   0  0  0  0  0  0  0  0  0  0  0  0
    4.5894   -6.8477    9.1890 C   0  0  0  0  0  0  0  0  0  0  0  0
    5.4188   -7.9372    8.9058 C   0  0  0  0  0  0  0  0  0  0  0  0
    5.0726   -9.2626    9.0558 O   0  0  0  0  0  0  0  0  0  0  0  0
    3.6806   -9.6292    8.8631 C   0  0  0  0  0  0  0  0  0  0  0  0
    3.5627  -10.8140    7.9126 C   0  0  0  0  0  0  0  0  0  0  0  0
    3.7893  -12.0023    8.8118 C   0  0  0  0  0  0  0  0  0  0  0  0
    3.2390  -11.6355   10.0730 O   0  0  0  0  0  0  0  0  0  0  0  0
    3.1450  -10.2059   10.1576 C   0  0  0  0  0  0  0  0  0  0  0  0
    4.0218   -4.3654    8.9098 C   0  0  0  0  0  0  0  0  0  0  0  0
    4.6824   -3.0573    9.0692 N   0  0  0  0  0  0  0  0  0  0  0  0
    5.9521   -2.9008    8.3384 C   0  0  0  0  0  0  0  0  0  0  0  0
    6.2898   -4.0304    7.3597 C   0  0  0  0  0  0  0  0  0  0  0  0
    7.3617   -8.5338    8.1867 H   0  0  0  0  0  0  0  0  0  0  0  0
    7.9793   -6.2844    7.3809 H   0  0  0  0  0  0  0  0  0  0  0  0
    3.6390   -6.9953    9.6928 H   0  0  0  0  0  0  0  0  0  0  0  0
    3.0851   -8.7874    8.4968 H   0  0  0  0  0  0  0  0  0  0  0  0
    2.5483  -10.8515    7.4998 H   0  0  0  0  0  0  0  0  0  0  0  0
    4.2775  -10.7851    7.0855 H   0  0  0  0  0  0  0  0  0  0  0  0
    4.8582  -12.1960    8.9521 H   0  0  0  0  0  0  0  0  0  0  0  0
    3.3186  -12.9158    8.4394 H   0  0  0  0  0  0  0  0  0  0  0  0
    3.7259   -9.8630   11.0159 H   0  0  0  0  0  0  0  0  0  0  0  0
    2.0964   -9.9378   10.3033 H   0  0  0  0  0  0  0  0  0  0  0  0
    3.3651   -4.5184    9.7743 H   0  0  0  0  0  0  0  0  0  0  0  0
    3.3723   -4.3208    8.0269 H   0  0  0  0  0  0  0  0  0  0  0  0
    4.8425   -2.8767   10.0574 H   0  0  0  0  0  0  0  0  0  0  0  0
    5.9228   -1.9491    7.7962 H   0  0  0  0  0  0  0  0  0  0  0  0
    6.7564   -2.8034    9.0762 H   0  0  0  0  0  0  0  0  0  0  0  0
    5.5881   -3.9987    6.5143 H   0  0  0  0  0  0  0  0  0  0  0  0
    7.2754   -3.8957    6.9117 H   0  0  0  0  0  0  0  0  0  0  0  0
  1  2  2  0
  2  3  1  0
  3  4  2  0
  4  5  1  0
  5  6  2  0
  6  7  1  0
  7  8  1  0
  8  9  1  0
  9 10  1  0
 10 11  1  0
 11 12  1  0
  4 13  1  0
 13 14  1  0
 14 15  1  0
 15 16  1  0
  6  1  1  0
 12  8  1  0
 16  3  1  0
  1 17  1  0
  2 18  1  0
  5 19  1  0
  8 20  1  0
  9 21  1  0
  9 22  1  0
 10 23  1  0
 10 24  1  0
 12 25  1  0
 12 26  1  0
 13 27  1  0
 13 28  1  0
 14 29  1  0
 15 30  1  0
 15 31  1  0
 16 32  1  0
 16 33  1  0
M  END
>  <Energy>  (1424) 
64.274310665705684

>  <compound_id>  (1424) 
62452

>  <target_id>  (1424) 
1

>  <reference_id>  (1424) 
28

>  <inspiration_ids>  (1424) 
[28, 146]

>  <energy_score>  (1424) 
-10.405707423021056

>  <distance_score>  (1424) 
14.537469159631199

>  <path>  (1424) 
/opt/xchem-fragalysis-2/maxwin/BulkDock/SCRATCH/511021/C62452-P28/C62452-P28.minimised.mol

>  <scratch_subdir>  (1424) 
/opt/xchem-fragalysis-2/maxwin/BulkDock/SCRATCH/511021/C62452-P28

>  <fragmenstein_runtime>  (1424) 
9.678362846374512

>  <fragmenstein_outcome>  (1424) 
too moved

>  <fragmenstein_mode>  (1424) 
expansion

>  <fragmenstein_error>  (1424) 


$$$$
C62452-P146
     RDKit          3D

 33 35  0  0  0  0  0  0  0  0999 V2000
    7.8568  -12.2033   10.2694 C   0  0  0  0  0  0  0  0  0  0  0  0
    8.8157  -11.1823   10.1757 C   0  0  0  0  0  0  0  0  0  0  0  0
    8.4642   -9.9327    9.6511 C   0  0  0  0  0  0  0  0  0  0  0  0
    7.1153   -9.6592    9.3638 C   0  0  0  0  0  0  0  0  0  0  0  0
    6.1663  -10.7019    9.4496 C   0  0  0  0  0  0  0  0  0  0  0  0
    6.5476  -11.9903    9.8300 C   0  0  0  0  0  0  0  0  0  0  0  0
    5.6267  -13.0199    9.8774 O   0  0  0  0  0  0  0  0  0  0  0  0
    5.3197  -13.6828    8.6158 C   0  0  0  0  0  0  0  0  0  0  0  0
    3.8416  -13.5593    8.2426 C   0  0  0  0  0  0  0  0  0  0  0  0
    3.4242  -14.9557    7.8106 C   0  0  0  0  0  0  0  0  0  0  0  0
    4.2034  -15.8395    8.6117 O   0  0  0  0  0  0  0  0  0  0  0  0
    5.5014  -15.2150    8.7066 C   0  0  0  0  0  0  0  0  0  0  0  0
    6.6835   -8.2979    8.8580 C   0  0  0  0  0  0  0  0  0  0  0  0
    7.7042   -7.2634    8.9686 N   0  0  0  0  0  0  0  0  0  0  0  0
    8.9955   -7.7602    8.4845 C   0  0  0  0  0  0  0  0  0  0  0  0
    9.5207   -8.8985    9.3635 C   0  0  0  0  0  0  0  0  0  0  0  0
    8.1451  -13.1794   10.6488 H   0  0  0  0  0  0  0  0  0  0  0  0
    9.8435  -11.3883   10.4633 H   0  0  0  0  0  0  0  0  0  0  0  0
    5.1278  -10.5122    9.1908 H   0  0  0  0  0  0  0  0  0  0  0  0
    5.9651  -13.2893    7.8198 H   0  0  0  0  0  0  0  0  0  0  0  0
    3.2726  -13.2101    9.1013 H   0  0  0  0  0  0  0  0  0  0  0  0
    3.6803  -12.8308    7.4416 H   0  0  0  0  0  0  0  0  0  0  0  0
    2.3665  -15.1756    7.9330 H   0  0  0  0  0  0  0  0  0  0  0  0
    3.6814  -15.1275    6.7585 H   0  0  0  0  0  0  0  0  0  0  0  0
    6.0230  -15.5517    9.6062 H   0  0  0  0  0  0  0  0  0  0  0  0
    6.0804  -15.5651    7.8433 H   0  0  0  0  0  0  0  0  0  0  0  0
    6.3848   -8.4017    7.8073 H   0  0  0  0  0  0  0  0  0  0  0  0
    5.8035   -7.9715    9.4235 H   0  0  0  0  0  0  0  0  0  0  0  0
    7.4520   -6.4406    8.4212 H   0  0  0  0  0  0  0  0  0  0  0  0
    8.8921   -8.1012    7.4457 H   0  0  0  0  0  0  0  0  0  0  0  0
    9.7258   -6.9479    8.4646 H   0  0  0  0  0  0  0  0  0  0  0  0
   10.3671   -9.3723    8.8519 H   0  0  0  0  0  0  0  0  0  0  0  0
    9.8818   -8.5211   10.3116 H   0  0  0  0  0  0  0  0  0  0  0  0
  1  2  2  0
  2  3  1  0
  3  4  2  0
  4  5  1  0
  5  6  2  0
  6  7  1  0
  7  8  1  0
  8  9  1  0
  9 10  1  0
 10 11  1  0
 11 12  1  0
  4 13  1  0
 13 14  1  0
 14 15  1  0
 15 16  1  0
  6  1  1  0
 12  8  1  0
 16  3  1  0
  1 17  1  0
  2 18  1  0
  5 19  1  0
  8 20  1  0
  9 21  1  0
  9 22  1  0
 10 23  1  0
 10 24  1  0
 12 25  1  0
 12 26  1  0
 13 27  1  0
 13 28  1  0
 14 29  1  0
 15 30  1  0
 15 31  1  0
 16 32  1  0
 16 33  1  0
M  END
>  <Energy>  (1425) 
62.523015000856908

>  <compound_id>  (1425) 
62452

>  <target_id>  (1425) 
1

>  <reference_id>  (1425) 
146

>  <inspiration_ids>  (1425) 
[28, 146]

>  <energy_score>  (1425) 
-12.157003087865178

>  <distance_score>  (1425) 
13.8022170450802

>  <path>  (1425) 
/opt/xchem-fragalysis-2/maxwin/BulkDock/SCRATCH/511021/C62452-P146/C62452-P146.minimised.mol

>  <scratch_subdir>  (1425) 
/opt/xchem-fragalysis-2/maxwin/BulkDock/SCRATCH/511021/C62452-P146

>  <fragmenstein_runtime>  (1425) 
10.359926462173462

>  <fragmenstein_outcome>  (1425) 
too moved

>  <fragmenstein_mode>  (1425) 
expansion

>  <fragmenstein_error>  (1425) 


$$$$
C62453-P28
     RDKit          3D

 33 35  0  0  0  0  0  0  0  0999 V2000
    0.0490   -6.3994   17.2512 C   0  0  0  0  0  0  0  0  0  0  0  0
    1.2366   -5.7357   16.8741 C   0  0  0  0  0  0  0  0  0  0  0  0
    2.4356   -5.9143   17.5773 C   0  0  0  0  0  0  0  0  0  0  0  0
    2.4041   -6.6586   18.7628 C   0  0  0  0  0  0  0  0  0  0  0  0
    1.1947   -7.2960   19.1496 C   0  0  0  0  0  0  0  0  0  0  0  0
    0.0150   -7.2146   18.3772 C   0  0  0  0  0  0  0  0  0  0  0  0
   -1.1609   -7.7878   18.8607 O   0  0  0  0  0  0  0  0  0  0  0  0
   -1.9708   -8.6513   18.0114 C   0  0  0  0  0  0  0  0  0  0  0  0
   -2.3323   -9.9887   18.6946 C   0  0  0  0  0  0  0  0  0  0  0  0
   -3.7068  -10.3918   18.1772 C   0  0  0  0  0  0  0  0  0  0  0  0
   -4.1187   -9.3417   17.2976 O   0  0  0  0  0  0  0  0  0  0  0  0
   -3.3886   -8.1654   17.7177 C   0  0  0  0  0  0  0  0  0  0  0  0
    3.6653   -6.8057   19.5900 C   0  0  0  0  0  0  0  0  0  0  0  0
    4.8238   -5.9147   19.1207 C   0  0  0  0  0  0  0  0  0  0  0  0
    4.9002   -5.9227   17.6679 N   0  0  0  0  0  0  0  0  0  0  0  0
    3.7163   -5.2859   17.0853 C   0  0  0  0  0  0  0  0  0  0  0  0
   -0.8546   -6.2346   16.6717 H   0  0  0  0  0  0  0  0  0  0  0  0
    1.2158   -5.0941   15.9949 H   0  0  0  0  0  0  0  0  0  0  0  0
    1.1662   -7.8843   20.0655 H   0  0  0  0  0  0  0  0  0  0  0  0
   -1.4928   -8.7945   17.0430 H   0  0  0  0  0  0  0  0  0  0  0  0
   -1.6243  -10.7875   18.4831 H   0  0  0  0  0  0  0  0  0  0  0  0
   -2.3512   -9.8784   19.7855 H   0  0  0  0  0  0  0  0  0  0  0  0
   -3.6995  -11.3412   17.6379 H   0  0  0  0  0  0  0  0  0  0  0  0
   -4.4293  -10.4687   18.9966 H   0  0  0  0  0  0  0  0  0  0  0  0
   -3.8689   -7.7313   18.6027 H   0  0  0  0  0  0  0  0  0  0  0  0
   -3.4104   -7.4187   16.9185 H   0  0  0  0  0  0  0  0  0  0  0  0
    3.9784   -7.8539   19.5418 H   0  0  0  0  0  0  0  0  0  0  0  0
    3.4407   -6.5749   20.6380 H   0  0  0  0  0  0  0  0  0  0  0  0
    5.7582   -6.2986   19.5406 H   0  0  0  0  0  0  0  0  0  0  0  0
    4.6950   -4.8958   19.5048 H   0  0  0  0  0  0  0  0  0  0  0  0
    5.7556   -5.5091   17.3269 H   0  0  0  0  0  0  0  0  0  0  0  0
    3.6756   -4.2153   17.3094 H   0  0  0  0  0  0  0  0  0  0  0  0
    3.7758   -5.3952   15.9966 H   0  0  0  0  0  0  0  0  0  0  0  0
  1  2  2  0
  2  3  1  0
  3  4  2  0
  4  5  1  0
  5  6  2  0
  6  7  1  0
  7  8  1  0
  8  9  1  0
  9 10  1  0
 10 11  1  0
 11 12  1  0
  4 13  1  0
 13 14  1  0
 14 15  1  0
 15 16  1  0
  6  1  1  0
 12  8  1  0
 16  3  1  0
  1 17  1  0
  2 18  1  0
  5 19  1  0
  8 20  1  0
  9 21  1  0
  9 22  1  0
 10 23  1  0
 10 24  1  0
 12 25  1  0
 12 26  1  0
 13 27  1  0
 13 28  1  0
 14 29  1  0
 14 30  1  0
 15 31  1  0
 16 32  1  0
 16 33  1  0
M  END
>  <Energy>  (1426) 
65.795357562878451

>  <compound_id>  (1426) 
62453

>  <target_id>  (1426) 
1

>  <reference_id>  (1426) 
28

>  <inspiration_ids>  (1426) 
[28, 146]

>  <energy_score>  (1426) 
-17.82333046012144

>  <distance_score>  (1426) 
14.269634948971758

>  <path>  (1426) 
/opt/xchem-fragalysis-2/maxwin/BulkDock/SCRATCH/511021/C62453-P28/C62453-P28.minimised.mol

>  <scratch_subdir>  (1426) 
/opt/xchem-fragalysis-2/maxwin/BulkDock/SCRATCH/511021/C62453-P28

>  <fragmenstein_runtime>  (1426) 
9.973376750946045

>  <fragmenstein_outcome>  (1426) 
too moved

>  <fragmenstein_mode>  (1426) 
expansion

>  <fragmenstein_error>  (1426) 


$$$$
C62453-P146
     RDKit          3D

 33 35  0  0  0  0  0  0  0  0999 V2000
    4.6504   -8.0963   19.9799 C   0  0  0  0  0  0  0  0  0  0  0  0
    5.9731   -8.5244   20.0188 C   0  0  0  0  0  0  0  0  0  0  0  0
    6.9376   -7.5575   19.9690 C   0  0  0  0  0  0  0  0  0  0  0  0
    6.5757   -6.0182   20.0070 C   0  0  0  0  0  0  0  0  0  0  0  0
    5.2093   -5.6960   19.8496 C   0  0  0  0  0  0  0  0  0  0  0  0
    4.2434   -6.7663   19.7453 C   0  0  0  0  0  0  0  0  0  0  0  0
    2.8823   -6.5017   19.5106 O   0  0  0  0  0  0  0  0  0  0  0  0
    1.9590   -7.5629   19.0350 C   0  0  0  0  0  0  0  0  0  0  0  0
    0.5609   -7.4963   19.6510 C   0  0  0  0  0  0  0  0  0  0  0  0
   -0.4037   -7.9736   18.5612 C   0  0  0  0  0  0  0  0  0  0  0  0
    0.3589   -8.1371   17.3573 O   0  0  0  0  0  0  0  0  0  0  0  0
    1.5898   -7.4248   17.5656 C   0  0  0  0  0  0  0  0  0  0  0  0
    7.8784   -4.7985   20.5988 C   0  0  0  0  0  0  0  0  0  0  0  0
    9.7935   -5.4054   20.2932 C   0  0  0  0  0  0  0  0  0  0  0  0
    9.6574   -6.5847   19.4665 N   0  0  0  0  0  0  0  0  0  0  0  0
    8.6170   -8.1658   19.9368 C   0  0  0  0  0  0  0  0  0  0  0  0
    3.8967   -8.8421   20.1993 H   0  0  0  0  0  0  0  0  0  0  0  0
    6.2399   -9.5665   20.1426 H   0  0  0  0  0  0  0  0  0  0  0  0
    4.8762   -4.6640   19.8524 H   0  0  0  0  0  0  0  0  0  0  0  0
    2.3351   -8.5726   19.1931 H   0  0  0  0  0  0  0  0  0  0  0  0
    0.3167   -6.4700   19.9505 H   0  0  0  0  0  0  0  0  0  0  0  0
    0.4854   -8.1053   20.5578 H   0  0  0  0  0  0  0  0  0  0  0  0
   -0.9253   -8.8995   18.8083 H   0  0  0  0  0  0  0  0  0  0  0  0
   -1.1705   -7.2131   18.3761 H   0  0  0  0  0  0  0  0  0  0  0  0
    1.4493   -6.3761   17.2785 H   0  0  0  0  0  0  0  0  0  0  0  0
    2.3736   -7.8403   16.9361 H   0  0  0  0  0  0  0  0  0  0  0  0
    7.5729   -5.0974   21.6475 H   0  0  0  0  0  0  0  0  0  0  0  0
    7.6591   -3.8219   21.0045 H   0  0  0  0  0  0  0  0  0  0  0  0
   10.4122   -6.1416   20.8178 H   0  0  0  0  0  0  0  0  0  0  0  0
   10.8013   -5.0463   20.6813 H   0  0  0  0  0  0  0  0  0  0  0  0
    9.1814   -6.0105   18.8807 H   0  0  0  0  0  0  0  0  0  0  0  0
    8.5488   -8.9442   19.1488 H   0  0  0  0  0  0  0  0  0  0  0  0
    9.1263   -8.8063   20.6645 H   0  0  0  0  0  0  0  0  0  0  0  0
  1  2  2  0
  2  3  1  0
  3  4  2  0
  4  5  1  0
  5  6  2  0
  6  7  1  0
  7  8  1  0
  8  9  1  0
  9 10  1  0
 10 11  1  0
 11 12  1  0
  4 13  1  0
 13 14  1  0
 14 15  1  0
 15 16  1  0
  6  1  1  0
 12  8  1  0
 16  3  1  0
  1 17  1  0
  2 18  1  0
  5 19  1  0
  8 20  1  0
  9 21  1  0
  9 22  1  0
 10 23  1  0
 10 24  1  0
 12 25  1  0
 12 26  1  0
 13 27  1  0
 13 28  1  0
 14 29  1  0
 14 30  1  0
 15 31  1  0
 16 32  1  0
 16 33  1  0
M  END
>  <Energy>  (1427) 
374.32735012379572

>  <compound_id>  (1427) 
62453

>  <target_id>  (1427) 
1

>  <reference_id>  (1427) 
146

>  <inspiration_ids>  (1427) 
[28, 146]

>  <energy_score>  (1427) 
290.70866210079566

>  <distance_score>  (1427) 
14.262651355333482

>  <path>  (1427) 
/opt/xchem-fragalysis-2/maxwin/BulkDock/SCRATCH/511021/C62453-P146/C62453-P146.minimised.mol

>  <scratch_subdir>  (1427) 
/opt/xchem-fragalysis-2/maxwin/BulkDock/SCRATCH/511021/C62453-P146

>  <fragmenstein_runtime>  (1427) 
9.325546979904175

>  <fragmenstein_outcome>  (1427) 
too moved

>  <fragmenstein_mode>  (1427) 
expansion

>  <fragmenstein_error>  (1427) 


$$$$
C62454-P28
     RDKit          3D

 30 32  0  0  0  0  0  0  0  0999 V2000
    2.4192  -14.0407   17.7466 C   0  0  0  0  0  0  0  0  0  0  0  0
    3.6165  -12.7439   17.7985 C   0  0  0  0  0  0  0  0  0  0  0  0
    4.1615  -11.5973   16.4551 C   0  0  0  0  0  0  0  0  0  0  0  0
    3.5238  -11.4544   15.4174 C   0  0  0  0  0  0  0  0  0  0  0  0
    1.9623  -12.5401   15.4859 C   0  0  0  0  0  0  0  0  0  0  0  0
    1.3791  -13.9183   16.6011 C   0  0  0  0  0  0  0  0  0  0  0  0
   -0.1901  -13.7129   17.2255 O   0  0  0  0  0  0  0  0  0  0  0  0
   -1.8014  -14.1009   17.6771 C   0  0  0  0  0  0  0  0  0  0  0  0
   -2.2374  -15.0353   18.8991 C   0  0  0  0  0  0  0  0  0  0  0  0
   -3.5425  -15.7372   18.5489 C   0  0  0  0  0  0  0  0  0  0  0  0
   -4.2382  -14.8196   17.7385 O   0  0  0  0  0  0  0  0  0  0  0  0
   -3.2549  -14.0660   16.9834 C   0  0  0  0  0  0  0  0  0  0  0  0
    3.8661  -10.2749   14.1635 C   0  0  0  0  0  0  0  0  0  0  0  0
    5.1275  -10.5092   13.7005 N   0  0  0  0  0  0  0  0  0  0  0  0
    5.0839  -11.5825   14.6623 C   0  0  0  0  0  0  0  0  0  0  0  0
    2.3963  -14.7829   18.5308 H   0  0  0  0  0  0  0  0  0  0  0  0
    4.2186  -12.8210   18.7204 H   0  0  0  0  0  0  0  0  0  0  0  0
    2.3000  -11.9501   16.3597 H   0  0  0  0  0  0  0  0  0  0  0  0
   -1.9371  -13.0792   18.0677 H   0  0  0  0  0  0  0  0  0  0  0  0
   -1.5078  -15.7704   19.2484 H   0  0  0  0  0  0  0  0  0  0  0  0
   -2.5065  -14.3792   19.7399 H   0  0  0  0  0  0  0  0  0  0  0  0
   -4.1336  -15.9624   19.4419 H   0  0  0  0  0  0  0  0  0  0  0  0
   -3.4063  -16.6728   18.0003 H   0  0  0  0  0  0  0  0  0  0  0  0
   -3.6506  -13.0515   17.0431 H   0  0  0  0  0  0  0  0  0  0  0  0
   -3.3798  -14.4663   15.9838 H   0  0  0  0  0  0  0  0  0  0  0  0
    3.1683  -10.4273   13.3988 H   0  0  0  0  0  0  0  0  0  0  0  0
    4.0742   -9.2337   14.0771 H   0  0  0  0  0  0  0  0  0  0  0  0
    5.3695  -10.7647   12.7546 H   0  0  0  0  0  0  0  0  0  0  0  0
    5.5621  -12.4428   14.2089 H   0  0  0  0  0  0  0  0  0  0  0  0
    5.8459  -10.8269   14.7080 H   0  0  0  0  0  0  0  0  0  0  0  0
  1  2  2  0
  2  3  1  0
  3  4  2  0
  4  5  1  0
  5  6  2  0
  6  7  1  0
  7  8  1  0
  8  9  1  0
  9 10  1  0
 10 11  1  0
 11 12  1  0
  4 13  1  0
 13 14  1  0
 14 15  1  0
  6  1  1  0
 12  8  1  0
 15  3  1  0
  1 16  1  0
  2 17  1  0
  5 18  1  0
  8 19  1  0
  9 20  1  0
  9 21  1  0
 10 22  1  0
 10 23  1  0
 12 24  1  0
 12 25  1  0
 13 26  1  0
 13 27  1  0
 14 28  1  0
 15 29  1  0
 15 30  1  0
M  END
>  <Energy>  (1428) 
856.39931144597142

>  <compound_id>  (1428) 
62454

>  <target_id>  (1428) 
1

>  <reference_id>  (1428) 
28

>  <inspiration_ids>  (1428) 
[28, 146]

>  <energy_score>  (1428) 
795.9342186102773

>  <distance_score>  (1428) 
13.545812039637806

>  <path>  (1428) 
/opt/xchem-fragalysis-2/maxwin/BulkDock/SCRATCH/511021/C62454-P28/C62454-P28.minimised.mol

>  <scratch_subdir>  (1428) 
/opt/xchem-fragalysis-2/maxwin/BulkDock/SCRATCH/511021/C62454-P28

>  <fragmenstein_runtime>  (1428) 
9.222681999206543

>  <fragmenstein_outcome>  (1428) 
too moved

>  <fragmenstein_mode>  (1428) 
expansion

>  <fragmenstein_error>  (1428) 


$$$$
C62454-P146
     RDKit          3D

 30 32  0  0  0  0  0  0  0  0999 V2000
    7.7312   -7.9599   14.2226 C   0  0  0  0  0  0  0  0  0  0  0  0
    8.5380   -6.8774   14.5952 C   0  0  0  0  0  0  0  0  0  0  0  0
    8.6406   -5.0296   14.6769 C   0  0  0  0  0  0  0  0  0  0  0  0
    8.1120   -4.5951   15.8088 C   0  0  0  0  0  0  0  0  0  0  0  0
    6.8637   -5.9499   15.8604 C   0  0  0  0  0  0  0  0  0  0  0  0
    6.6231   -7.4256   14.7718 C   0  0  0  0  0  0  0  0  0  0  0  0
    5.4898   -7.4832   13.6755 O   0  0  0  0  0  0  0  0  0  0  0  0
    5.6658   -8.2934   12.4669 C   0  0  0  0  0  0  0  0  0  0  0  0
    4.6355   -7.8995   11.4134 C   0  0  0  0  0  0  0  0  0  0  0  0
    4.3743   -9.1567   10.6060 C   0  0  0  0  0  0  0  0  0  0  0  0
    4.8633  -10.2617   11.3528 O   0  0  0  0  0  0  0  0  0  0  0  0
    5.4339   -9.7912   12.5867 C   0  0  0  0  0  0  0  0  0  0  0  0
    9.8304   -3.8012   15.2621 C   0  0  0  0  0  0  0  0  0  0  0  0
    9.3474   -2.4869   14.9091 N   0  0  0  0  0  0  0  0  0  0  0  0
    8.1351   -3.1682   14.4710 C   0  0  0  0  0  0  0  0  0  0  0  0
    7.9695   -8.9644   13.9555 H   0  0  0  0  0  0  0  0  0  0  0  0
    9.4111   -7.4032   15.0454 H   0  0  0  0  0  0  0  0  0  0  0  0
    5.9323   -5.7209   16.4080 H   0  0  0  0  0  0  0  0  0  0  0  0
    6.6484   -8.0940   12.0217 H   0  0  0  0  0  0  0  0  0  0  0  0
    3.7298   -7.4804   11.8544 H   0  0  0  0  0  0  0  0  0  0  0  0
    5.0181   -7.0981   10.7698 H   0  0  0  0  0  0  0  0  0  0  0  0
    3.3170   -9.2970   10.3661 H   0  0  0  0  0  0  0  0  0  0  0  0
    4.9250   -9.1267    9.6598 H   0  0  0  0  0  0  0  0  0  0  0  0
    6.3731  -10.3291   12.7478 H   0  0  0  0  0  0  0  0  0  0  0  0
    4.7773  -10.0513   13.4121 H   0  0  0  0  0  0  0  0  0  0  0  0
   10.6068   -3.7914   16.0654 H   0  0  0  0  0  0  0  0  0  0  0  0
   10.4854   -4.2353   14.4625 H   0  0  0  0  0  0  0  0  0  0  0  0
    9.8103   -2.1336   14.0624 H   0  0  0  0  0  0  0  0  0  0  0  0
    7.2474   -2.8351   15.0254 H   0  0  0  0  0  0  0  0  0  0  0  0
    7.9116   -2.7559   13.5046 H   0  0  0  0  0  0  0  0  0  0  0  0
  1  2  2  0
  2  3  1  0
  3  4  2  0
  4  5  1  0
  5  6  2  0
  6  7  1  0
  7  8  1  0
  8  9  1  0
  9 10  1  0
 10 11  1  0
 11 12  1  0
  4 13  1  0
 13 14  1  0
 14 15  1  0
  6  1  1  0
 12  8  1  0
 15  3  1  0
  1 16  1  0
  2 17  1  0
  5 18  1  0
  8 19  1  0
  9 20  1  0
  9 21  1  0
 10 22  1  0
 10 23  1  0
 12 24  1  0
 12 25  1  0
 13 26  1  0
 13 27  1  0
 14 28  1  0
 15 29  1  0
 15 30  1  0
M  END
>  <Energy>  (1429) 
659.87076566403164

>  <compound_id>  (1429) 
62454

>  <target_id>  (1429) 
1

>  <reference_id>  (1429) 
146

>  <inspiration_ids>  (1429) 
[28, 146]

>  <energy_score>  (1429) 
599.4056728283368

>  <distance_score>  (1429) 
13.680164969456424

>  <path>  (1429) 
/opt/xchem-fragalysis-2/maxwin/BulkDock/SCRATCH/511021/C62454-P146/C62454-P146.minimised.mol

>  <scratch_subdir>  (1429) 
/opt/xchem-fragalysis-2/maxwin/BulkDock/SCRATCH/511021/C62454-P146

>  <fragmenstein_runtime>  (1429) 
7.248101472854614

>  <fragmenstein_outcome>  (1429) 
too moved

>  <fragmenstein_mode>  (1429) 
expansion

>  <fragmenstein_error>  (1429) 


$$$$
C62455-P28
     RDKit          3D

 36 38  0  0  0  0  0  0  0  0999 V2000
    3.5636  -15.7697   17.3728 C   0  0  0  0  0  0  0  0  0  0  0  0
    3.0377  -14.4758   18.1335 C   0  0  0  0  0  0  0  0  0  0  0  0
    3.6832  -13.0505   18.0775 O   0  0  0  0  0  0  0  0  0  0  0  0
    4.3359  -11.8522   17.1034 C   0  0  0  0  0  0  0  0  0  0  0  0
    5.9586  -11.5738   18.3030 C   0  0  0  0  0  0  0  0  0  0  0  0
    7.5542  -10.7745   17.6658 C   0  0  0  0  0  0  0  0  0  0  0  0
    7.8458  -10.1842   15.8738 C   0  0  0  0  0  0  0  0  0  0  0  0
    6.3255  -10.4975   14.5121 C   0  0  0  0  0  0  0  0  0  0  0  0
    4.6919  -11.2896   15.2472 C   0  0  0  0  0  0  0  0  0  0  0  0
    7.4016  -11.1821   13.3113 C   0  0  0  0  0  0  0  0  0  0  0  0
    8.8864  -11.7146   13.5613 C   0  0  0  0  0  0  0  0  0  0  0  0
    9.8560  -10.8811   14.2525 N   0  0  0  0  0  0  0  0  0  0  0  0
    9.3807  -10.4111   15.5645 C   0  0  0  0  0  0  0  0  0  0  0  0
    3.0573  -15.0252   19.5923 C   0  0  0  0  0  0  0  0  0  0  0  0
    1.8341  -15.9488   19.6762 C   0  0  0  0  0  0  0  0  0  0  0  0
    1.0184  -15.6924   18.5281 O   0  0  0  0  0  0  0  0  0  0  0  0
    1.5283  -14.4730   17.9211 C   0  0  0  0  0  0  0  0  0  0  0  0
    4.1770  -16.4130   18.0161 H   0  0  0  0  0  0  0  0  0  0  0  0
    2.7408  -16.4329   17.0896 H   0  0  0  0  0  0  0  0  0  0  0  0
    4.1175  -15.6780   16.4571 H   0  0  0  0  0  0  0  0  0  0  0  0
    5.9791  -12.0431   19.2960 H   0  0  0  0  0  0  0  0  0  0  0  0
    8.4256  -10.8124   18.3217 H   0  0  0  0  0  0  0  0  0  0  0  0
    4.7050  -12.0714   14.5156 H   0  0  0  0  0  0  0  0  0  0  0  0
    6.9084  -12.1544   13.1628 H   0  0  0  0  0  0  0  0  0  0  0  0
    7.5037  -10.4288   12.5589 H   0  0  0  0  0  0  0  0  0  0  0  0
    8.8557  -12.6972   14.0552 H   0  0  0  0  0  0  0  0  0  0  0  0
    9.2960  -11.9384   12.5672 H   0  0  0  0  0  0  0  0  0  0  0  0
   10.7058  -11.4171   14.4048 H   0  0  0  0  0  0  0  0  0  0  0  0
    9.9289   -9.5080   15.8153 H   0  0  0  0  0  0  0  0  0  0  0  0
    9.7126  -11.1679   16.2872 H   0  0  0  0  0  0  0  0  0  0  0  0
    3.9793  -15.5648   19.8432 H   0  0  0  0  0  0  0  0  0  0  0  0
    3.0348  -14.2628   20.3718 H   0  0  0  0  0  0  0  0  0  0  0  0
    2.1207  -17.0048   19.6680 H   0  0  0  0  0  0  0  0  0  0  0  0
    1.2505  -15.7547   20.5814 H   0  0  0  0  0  0  0  0  0  0  0  0
    1.4027  -14.2827   16.8596 H   0  0  0  0  0  0  0  0  0  0  0  0
    0.8125  -13.7528   18.2721 H   0  0  0  0  0  0  0  0  0  0  0  0
  1  2  1  0
  2  3  1  0
  3  4  1  0
  4  5  2  0
  5  6  1  0
  6  7  2  0
  7  8  1  0
  8  9  2  0
  8 10  1  0
 10 11  1  0
 11 12  1  0
 12 13  1  0
  2 14  1  0
 14 15  1  0
 15 16  1  0
 16 17  1  0
 17  2  1  0
  9  4  1  0
 13  7  1  0
  1 18  1  0
  1 19  1  0
  1 20  1  0
  5 21  1  0
  6 22  1  0
  9 23  1  0
 10 24  1  0
 10 25  1  0
 11 26  1  0
 11 27  1  0
 12 28  1  0
 13 29  1  0
 13 30  1  0
 14 31  1  0
 14 32  1  0
 15 33  1  0
 15 34  1  0
 17 35  1  0
 17 36  1  0
M  END
>  <Energy>  (1430) 
835.1634102286605

>  <compound_id>  (1430) 
62455

>  <target_id>  (1430) 
1

>  <reference_id>  (1430) 
28

>  <inspiration_ids>  (1430) 
[28, 146]

>  <energy_score>  (1430) 
737.7795105678299

>  <distance_score>  (1430) 
13.281733695519884

>  <path>  (1430) 
/opt/xchem-fragalysis-2/maxwin/BulkDock/SCRATCH/511021/C62455-P28/C62455-P28.minimised.mol

>  <scratch_subdir>  (1430) 
/opt/xchem-fragalysis-2/maxwin/BulkDock/SCRATCH/511021/C62455-P28

>  <fragmenstein_runtime>  (1430) 
10.353896617889404

>  <fragmenstein_outcome>  (1430) 
too moved

>  <fragmenstein_mode>  (1430) 
expansion

>  <fragmenstein_error>  (1430) 


$$$$
C62455-P146
     RDKit          3D

 36 38  0  0  0  0  0  0  0  0999 V2000
    5.4661  -16.2103   21.2207 C   0  0  0  0  0  0  0  0  0  0  0  0
    4.4601  -15.1457   20.7646 C   0  0  0  0  0  0  0  0  0  0  0  0
    4.9320  -13.7594   20.9714 O   0  0  0  0  0  0  0  0  0  0  0  0
    6.2450  -13.3202   21.0254 C   0  0  0  0  0  0  0  0  0  0  0  0
    7.0818  -13.4827   22.1230 C   0  0  0  0  0  0  0  0  0  0  0  0
    8.3613  -12.8629   22.1735 C   0  0  0  0  0  0  0  0  0  0  0  0
    8.8165  -12.0436   21.1356 C   0  0  0  0  0  0  0  0  0  0  0  0
    7.9570  -11.7951   20.0782 C   0  0  0  0  0  0  0  0  0  0  0  0
    6.7091  -12.4387   20.0441 C   0  0  0  0  0  0  0  0  0  0  0  0
    8.4976  -10.9375   18.9612 C   0  0  0  0  0  0  0  0  0  0  0  0
    9.8860  -11.4883   18.6129 C   0  0  0  0  0  0  0  0  0  0  0  0
   10.8153  -11.4535   19.7484 N   0  0  0  0  0  0  0  0  0  0  0  0
   10.1723  -11.3950   21.0771 C   0  0  0  0  0  0  0  0  0  0  0  0
    3.1386  -15.3498   21.5398 C   0  0  0  0  0  0  0  0  0  0  0  0
    2.3276  -16.3338   20.7145 C   0  0  0  0  0  0  0  0  0  0  0  0
    2.6239  -16.0308   19.3566 O   0  0  0  0  0  0  0  0  0  0  0  0
    3.9331  -15.4068   19.3218 C   0  0  0  0  0  0  0  0  0  0  0  0
    6.4266  -16.1132   20.7130 H   0  0  0  0  0  0  0  0  0  0  0  0
    5.6678  -16.1206   22.2937 H   0  0  0  0  0  0  0  0  0  0  0  0
    5.0963  -17.2246   21.0366 H   0  0  0  0  0  0  0  0  0  0  0  0
    6.7555  -14.0817   22.9688 H   0  0  0  0  0  0  0  0  0  0  0  0
    8.9946  -13.0470   23.0393 H   0  0  0  0  0  0  0  0  0  0  0  0
    6.1064  -12.2985   19.1711 H   0  0  0  0  0  0  0  0  0  0  0  0
    7.8572  -10.9796   18.0871 H   0  0  0  0  0  0  0  0  0  0  0  0
    8.5267   -9.8976   19.3018 H   0  0  0  0  0  0  0  0  0  0  0  0
    9.8005  -12.5363   18.3023 H   0  0  0  0  0  0  0  0  0  0  0  0
   10.3259  -10.9848   17.7487 H   0  0  0  0  0  0  0  0  0  0  0  0
   11.3982  -12.2903   19.7017 H   0  0  0  0  0  0  0  0  0  0  0  0
   10.8451  -11.8587   21.8078 H   0  0  0  0  0  0  0  0  0  0  0  0
   10.0606  -10.3450   21.3748 H   0  0  0  0  0  0  0  0  0  0  0  0
    3.2896  -15.7057   22.5646 H   0  0  0  0  0  0  0  0  0  0  0  0
    2.6047  -14.3989   21.6283 H   0  0  0  0  0  0  0  0  0  0  0  0
    1.2526  -16.2414   20.8914 H   0  0  0  0  0  0  0  0  0  0  0  0
    2.6287  -17.3675   20.9138 H   0  0  0  0  0  0  0  0  0  0  0  0
    4.5813  -16.1011   18.7861 H   0  0  0  0  0  0  0  0  0  0  0  0
    3.8547  -14.4843   18.7424 H   0  0  0  0  0  0  0  0  0  0  0  0
  1  2  1  0
  2  3  1  0
  3  4  1  0
  4  5  2  0
  5  6  1  0
  6  7  2  0
  7  8  1  0
  8  9  2  0
  8 10  1  0
 10 11  1  0
 11 12  1  0
 12 13  1  0
  2 14  1  0
 14 15  1  0
 15 16  1  0
 16 17  1  0
 17  2  1  0
  9  4  1  0
 13  7  1  0
  1 18  1  0
  1 19  1  0
  1 20  1  0
  5 21  1  0
  6 22  1  0
  9 23  1  0
 10 24  1  0
 10 25  1  0
 11 26  1  0
 11 27  1  0
 12 28  1  0
 13 29  1  0
 13 30  1  0
 14 31  1  0
 14 32  1  0
 15 33  1  0
 15 34  1  0
 17 35  1  0
 17 36  1  0
M  END
>  <Energy>  (1431) 
87.794146441731684

>  <compound_id>  (1431) 
62455

>  <target_id>  (1431) 
1

>  <reference_id>  (1431) 
146

>  <inspiration_ids>  (1431) 
[28, 146]

>  <energy_score>  (1431) 
-9.589753219096053

>  <distance_score>  (1431) 
14.340161846110982

>  <path>  (1431) 
/opt/xchem-fragalysis-2/maxwin/BulkDock/SCRATCH/511021/C62455-P146/C62455-P146.minimised.mol

>  <scratch_subdir>  (1431) 
/opt/xchem-fragalysis-2/maxwin/BulkDock/SCRATCH/511021/C62455-P146

>  <fragmenstein_runtime>  (1431) 
12.049845218658447

>  <fragmenstein_outcome>  (1431) 
too moved

>  <fragmenstein_mode>  (1431) 
expansion

>  <fragmenstein_error>  (1431) 


$$$$
C62456-P28
     RDKit          3D

 36 38  0  0  0  0  0  0  0  0999 V2000
    2.2457  -14.6495   16.8692 C   0  0  0  0  0  0  0  0  0  0  0  0
    1.6283  -13.0698   15.7755 C   0  0  0  0  0  0  0  0  0  0  0  0
    2.9491  -11.6693   16.3737 O   0  0  0  0  0  0  0  0  0  0  0  0
    3.7394  -10.2418   15.7686 C   0  0  0  0  0  0  0  0  0  0  0  0
    4.3734  -10.0061   14.4403 C   0  0  0  0  0  0  0  0  0  0  0  0
    4.7378   -8.5569   13.9344 C   0  0  0  0  0  0  0  0  0  0  0  0
    4.3449   -7.3474   14.7770 C   0  0  0  0  0  0  0  0  0  0  0  0
    3.8199   -7.5669   16.1279 C   0  0  0  0  0  0  0  0  0  0  0  0
    3.5848   -8.9410   16.6485 C   0  0  0  0  0  0  0  0  0  0  0  0
    3.4231   -6.3663   16.9485 C   0  0  0  0  0  0  0  0  0  0  0  0
    4.0782   -5.1440   16.4918 N   0  0  0  0  0  0  0  0  0  0  0  0
    3.7416   -4.8370   15.1020 C   0  0  0  0  0  0  0  0  0  0  0  0
    3.8374   -6.0428   14.1394 C   0  0  0  0  0  0  0  0  0  0  0  0
    0.5160  -13.4754   13.8804 C   0  0  0  0  0  0  0  0  0  0  0  0
   -1.1001  -14.0405   15.1541 C   0  0  0  0  0  0  0  0  0  0  0  0
   -0.6139  -14.3302   16.5479 O   0  0  0  0  0  0  0  0  0  0  0  0
    0.3229  -13.5285   17.0669 C   0  0  0  0  0  0  0  0  0  0  0  0
    2.9272  -14.2665   17.6734 H   0  0  0  0  0  0  0  0  0  0  0  0
    2.7632  -15.4336   16.3008 H   0  0  0  0  0  0  0  0  0  0  0  0
    1.6903  -15.2395   17.6165 H   0  0  0  0  0  0  0  0  0  0  0  0
    4.8628  -10.8118   13.9146 H   0  0  0  0  0  0  0  0  0  0  0  0
    5.1705   -8.4406   12.9433 H   0  0  0  0  0  0  0  0  0  0  0  0
    3.0657   -9.0109   17.6008 H   0  0  0  0  0  0  0  0  0  0  0  0
    2.3327   -6.2534   16.9228 H   0  0  0  0  0  0  0  0  0  0  0  0
    3.7179   -6.5404   17.9893 H   0  0  0  0  0  0  0  0  0  0  0  0
    3.7743   -4.3703   17.0803 H   0  0  0  0  0  0  0  0  0  0  0  0
    4.3561   -3.9972   14.7644 H   0  0  0  0  0  0  0  0  0  0  0  0
    2.7136   -4.4499   15.0676 H   0  0  0  0  0  0  0  0  0  0  0  0
    4.2865   -5.8504   13.1631 H   0  0  0  0  0  0  0  0  0  0  0  0
    2.7894   -6.2138   13.8592 H   0  0  0  0  0  0  0  0  0  0  0  0
    0.2617  -12.5162   13.3556 H   0  0  0  0  0  0  0  0  0  0  0  0
    0.7092  -14.1441   13.0235 H   0  0  0  0  0  0  0  0  0  0  0  0
   -1.9094  -14.5631   14.7118 H   0  0  0  0  0  0  0  0  0  0  0  0
   -1.7458  -13.4984   15.8129 H   0  0  0  0  0  0  0  0  0  0  0  0
    0.7827  -13.8905   17.9241 H   0  0  0  0  0  0  0  0  0  0  0  0
   -0.3992  -12.8385   17.5313 H   0  0  0  0  0  0  0  0  0  0  0  0
  1  2  1  0
  2  3  1  0
  3  4  1  0
  4  5  2  0
  5  6  1  0
  6  7  2  0
  7  8  1  0
  8  9  2  0
  8 10  1  0
 10 11  1  0
 11 12  1  0
 12 13  1  0
  2 14  1  0
 14 15  1  0
 15 16  1  0
 16 17  1  0
 17  2  1  0
  9  4  1  0
 13  7  1  0
  1 18  1  0
  1 19  1  0
  1 20  1  0
  5 21  1  0
  6 22  1  0
  9 23  1  0
 10 24  1  0
 10 25  1  0
 11 26  1  0
 12 27  1  0
 12 28  1  0
 13 29  1  0
 13 30  1  0
 14 31  1  0
 14 32  1  0
 15 33  1  0
 15 34  1  0
 17 35  1  0
 17 36  1  0
M  END
>  <Energy>  (1432) 
736.45265567314971

>  <compound_id>  (1432) 
62456

>  <target_id>  (1432) 
1

>  <reference_id>  (1432) 
28

>  <inspiration_ids>  (1432) 
[28, 146]

>  <energy_score>  (1432) 
640.3086650428659

>  <distance_score>  (1432) 
12.50652587674477

>  <path>  (1432) 
/opt/xchem-fragalysis-2/maxwin/BulkDock/SCRATCH/511021/C62456-P28/C62456-P28.minimised.mol

>  <scratch_subdir>  (1432) 
/opt/xchem-fragalysis-2/maxwin/BulkDock/SCRATCH/511021/C62456-P28

>  <fragmenstein_runtime>  (1432) 
13.587240219116211

>  <fragmenstein_outcome>  (1432) 
too moved

>  <fragmenstein_mode>  (1432) 
expansion

>  <fragmenstein_error>  (1432) 


$$$$
C62456-P146
     RDKit          3D

 36 38  0  0  0  0  0  0  0  0999 V2000
    2.0853  -12.5971    8.4594 C   0  0  0  0  0  0  0  0  0  0  0  0
    1.2188  -11.7900    9.4362 C   0  0  0  0  0  0  0  0  0  0  0  0
    1.8015  -10.4925    9.8065 O   0  0  0  0  0  0  0  0  0  0  0  0
    3.1222  -10.0962    9.9303 C   0  0  0  0  0  0  0  0  0  0  0  0
    4.2295  -10.8919   10.1936 C   0  0  0  0  0  0  0  0  0  0  0  0
    5.5281  -10.3465   10.3591 C   0  0  0  0  0  0  0  0  0  0  0  0
    5.7652   -8.9822   10.1848 C   0  0  0  0  0  0  0  0  0  0  0  0
    4.6792   -8.1435    9.9072 C   0  0  0  0  0  0  0  0  0  0  0  0
    3.3740   -8.7089    9.8177 C   0  0  0  0  0  0  0  0  0  0  0  0
    4.8974   -6.6771    9.5738 C   0  0  0  0  0  0  0  0  0  0  0  0
    6.2931   -6.2087    9.5556 N   0  0  0  0  0  0  0  0  0  0  0  0
    7.2222   -7.2795    9.1780 C   0  0  0  0  0  0  0  0  0  0  0  0
    7.1588   -8.4086   10.2061 C   0  0  0  0  0  0  0  0  0  0  0  0
   -0.1358  -11.5078    8.7392 C   0  0  0  0  0  0  0  0  0  0  0  0
   -0.9620  -12.7790    8.9082 C   0  0  0  0  0  0  0  0  0  0  0  0
   -0.4215  -13.4711   10.0305 O   0  0  0  0  0  0  0  0  0  0  0  0
    0.6121  -12.6275   10.5870 C   0  0  0  0  0  0  0  0  0  0  0  0
    2.9509  -13.0435    8.9492 H   0  0  0  0  0  0  0  0  0  0  0  0
    1.5369  -13.4255    7.9990 H   0  0  0  0  0  0  0  0  0  0  0  0
    2.4629  -11.9553    7.6556 H   0  0  0  0  0  0  0  0  0  0  0  0
    4.1206  -11.9626   10.2985 H   0  0  0  0  0  0  0  0  0  0  0  0
    6.3544  -11.0202   10.5767 H   0  0  0  0  0  0  0  0  0  0  0  0
    2.5298   -8.0538    9.6073 H   0  0  0  0  0  0  0  0  0  0  0  0
    4.3372   -6.0623   10.2867 H   0  0  0  0  0  0  0  0  0  0  0  0
    4.4726   -6.5025    8.5771 H   0  0  0  0  0  0  0  0  0  0  0  0
    6.3846   -5.4617    8.8662 H   0  0  0  0  0  0  0  0  0  0  0  0
    6.9758   -7.6492    8.1731 H   0  0  0  0  0  0  0  0  0  0  0  0
    8.2394   -6.8976    9.1092 H   0  0  0  0  0  0  0  0  0  0  0  0
    7.3882   -8.0530   11.2168 H   0  0  0  0  0  0  0  0  0  0  0  0
    7.8921   -9.1783    9.9398 H   0  0  0  0  0  0  0  0  0  0  0  0
   -0.0331  -11.2132    7.6892 H   0  0  0  0  0  0  0  0  0  0  0  0
   -0.6417  -10.6713    9.2406 H   0  0  0  0  0  0  0  0  0  0  0  0
   -0.8844  -13.4304    8.0324 H   0  0  0  0  0  0  0  0  0  0  0  0
   -2.0192  -12.5580    9.0830 H   0  0  0  0  0  0  0  0  0  0  0  0
    0.1682  -11.9833   11.3546 H   0  0  0  0  0  0  0  0  0  0  0  0
    1.3150  -13.2850   11.0753 H   0  0  0  0  0  0  0  0  0  0  0  0
  1  2  1  0
  2  3  1  0
  3  4  1  0
  4  5  2  0
  5  6  1  0
  6  7  2  0
  7  8  1  0
  8  9  2  0
  8 10  1  0
 10 11  1  0
 11 12  1  0
 12 13  1  0
  2 14  1  0
 14 15  1  0
 15 16  1  0
 16 17  1  0
 17  2  1  0
  9  4  1  0
 13  7  1  0
  1 18  1  0
  1 19  1  0
  1 20  1  0
  5 21  1  0
  6 22  1  0
  9 23  1  0
 10 24  1  0
 10 25  1  0
 11 26  1  0
 12 27  1  0
 12 28  1  0
 13 29  1  0
 13 30  1  0
 14 31  1  0
 14 32  1  0
 15 33  1  0
 15 34  1  0
 17 35  1  0
 17 36  1  0
M  END
>  <Energy>  (1433) 
80.908336918439446

>  <compound_id>  (1433) 
62456

>  <target_id>  (1433) 
1

>  <reference_id>  (1433) 
146

>  <inspiration_ids>  (1433) 
[28, 146]

>  <energy_score>  (1433) 
-15.235653711841735

>  <distance_score>  (1433) 
13.387355214088725

>  <path>  (1433) 
/opt/xchem-fragalysis-2/maxwin/BulkDock/SCRATCH/511021/C62456-P146/C62456-P146.minimised.mol

>  <scratch_subdir>  (1433) 
/opt/xchem-fragalysis-2/maxwin/BulkDock/SCRATCH/511021/C62456-P146

>  <fragmenstein_runtime>  (1433) 
12.10676121711731

>  <fragmenstein_outcome>  (1433) 
too moved

>  <fragmenstein_mode>  (1433) 
expansion

>  <fragmenstein_error>  (1433) 


$$$$
C62457-P28
     RDKit          3D

 33 35  0  0  0  0  0  0  0  0999 V2000
   -2.2200   -5.5181   15.1728 C   0  0  0  0  0  0  0  0  0  0  0  0
   -1.5551   -6.8810   14.9475 C   0  0  0  0  0  0  0  0  0  0  0  0
   -0.2522   -6.7040   14.3283 O   0  0  0  0  0  0  0  0  0  0  0  0
    0.7638   -5.8479   14.6883 C   0  0  0  0  0  0  0  0  0  0  0  0
    1.2294   -5.5883   15.9841 C   0  0  0  0  0  0  0  0  0  0  0  0
    2.3310   -4.7234   16.2004 C   0  0  0  0  0  0  0  0  0  0  0  0
    2.9365   -4.1152   15.1098 C   0  0  0  0  0  0  0  0  0  0  0  0
    2.5145   -4.4017   13.8225 C   0  0  0  0  0  0  0  0  0  0  0  0
    1.4550   -5.2741   13.6016 C   0  0  0  0  0  0  0  0  0  0  0  0
    3.3363   -3.6322   12.8394 C   0  0  0  0  0  0  0  0  0  0  0  0
    4.0745   -2.6396   13.6466 N   0  0  0  0  0  0  0  0  0  0  0  0
    4.0428   -3.1199   15.0393 C   0  0  0  0  0  0  0  0  0  0  0  0
   -2.4090   -7.7432   13.9807 C   0  0  0  0  0  0  0  0  0  0  0  0
   -3.3080   -8.5473   14.8919 C   0  0  0  0  0  0  0  0  0  0  0  0
   -2.4625   -8.9011   15.9917 O   0  0  0  0  0  0  0  0  0  0  0  0
   -1.5940   -7.7589   16.2165 C   0  0  0  0  0  0  0  0  0  0  0  0
   -1.6811   -4.9356   15.9274 H   0  0  0  0  0  0  0  0  0  0  0  0
   -2.2135   -4.9259   14.2507 H   0  0  0  0  0  0  0  0  0  0  0  0
   -3.2569   -5.6197   15.5092 H   0  0  0  0  0  0  0  0  0  0  0  0
    0.7498   -6.0503   16.8402 H   0  0  0  0  0  0  0  0  0  0  0  0
    2.6685   -4.5138   17.2108 H   0  0  0  0  0  0  0  0  0  0  0  0
    1.1354   -5.4969   12.5865 H   0  0  0  0  0  0  0  0  0  0  0  0
    4.0245   -4.3050   12.3200 H   0  0  0  0  0  0  0  0  0  0  0  0
    2.7057   -3.1173   12.1089 H   0  0  0  0  0  0  0  0  0  0  0  0
    5.0296   -2.5504   13.3151 H   0  0  0  0  0  0  0  0  0  0  0  0
    3.8723   -2.2825   15.7205 H   0  0  0  0  0  0  0  0  0  0  0  0
    4.9725   -3.6307   15.2697 H   0  0  0  0  0  0  0  0  0  0  0  0
   -1.7638   -8.4160   13.4040 H   0  0  0  0  0  0  0  0  0  0  0  0
   -2.9755   -7.1478   13.2576 H   0  0  0  0  0  0  0  0  0  0  0  0
   -4.1403   -7.9456   15.2733 H   0  0  0  0  0  0  0  0  0  0  0  0
   -3.7180   -9.4381   14.4199 H   0  0  0  0  0  0  0  0  0  0  0  0
   -2.0103   -7.2118   17.0699 H   0  0  0  0  0  0  0  0  0  0  0  0
   -0.6042   -8.1073   16.5094 H   0  0  0  0  0  0  0  0  0  0  0  0
  1  2  1  0
  2  3  1  0
  3  4  1  0
  4  5  2  0
  5  6  1  0
  6  7  2  0
  7  8  1  0
  8  9  2  0
  8 10  1  0
 10 11  1  0
 11 12  1  0
  2 13  1  0
 13 14  1  0
 14 15  1  0
 15 16  1  0
 16  2  1  0
  9  4  1  0
 12  7  1  0
  1 17  1  0
  1 18  1  0
  1 19  1  0
  5 20  1  0
  6 21  1  0
  9 22  1  0
 10 23  1  0
 10 24  1  0
 11 25  1  0
 12 26  1  0
 12 27  1  0
 13 28  1  0
 13 29  1  0
 14 30  1  0
 14 31  1  0
 16 32  1  0
 16 33  1  0
M  END
>  <Energy>  (1434) 
64.081751738984764

>  <compound_id>  (1434) 
62457

>  <target_id>  (1434) 
1

>  <reference_id>  (1434) 
28

>  <inspiration_ids>  (1434) 
[28, 146]

>  <energy_score>  (1434) 
-36.826194045033105

>  <distance_score>  (1434) 
13.83917846793182

>  <path>  (1434) 
/opt/xchem-fragalysis-2/maxwin/BulkDock/SCRATCH/511021/C62457-P28/C62457-P28.minimised.mol

>  <scratch_subdir>  (1434) 
/opt/xchem-fragalysis-2/maxwin/BulkDock/SCRATCH/511021/C62457-P28

>  <fragmenstein_runtime>  (1434) 
9.746729373931885

>  <fragmenstein_outcome>  (1434) 
too moved

>  <fragmenstein_mode>  (1434) 
expansion

>  <fragmenstein_error>  (1434) 


$$$$
C62457-P146
     RDKit          3D

 33 35  0  0  0  0  0  0  0  0999 V2000
   -0.2336  -14.3735   16.9916 C   0  0  0  0  0  0  0  0  0  0  0  0
    0.4127  -14.9505   15.4168 C   0  0  0  0  0  0  0  0  0  0  0  0
    0.6176  -14.1452   13.5764 O   0  0  0  0  0  0  0  0  0  0  0  0
    0.4714  -12.9253   12.7605 C   0  0  0  0  0  0  0  0  0  0  0  0
   -0.4653  -12.0353   12.2743 C   0  0  0  0  0  0  0  0  0  0  0  0
   -0.4327  -10.6727   11.5913 C   0  0  0  0  0  0  0  0  0  0  0  0
    0.7379  -10.3131   11.0311 C   0  0  0  0  0  0  0  0  0  0  0  0
    1.6675  -11.3047   11.1869 C   0  0  0  0  0  0  0  0  0  0  0  0
    1.1880  -12.6952   11.6469 C   0  0  0  0  0  0  0  0  0  0  0  0
    2.9447  -10.8246   10.4849 C   0  0  0  0  0  0  0  0  0  0  0  0
    2.5866   -9.5937    9.7148 N   0  0  0  0  0  0  0  0  0  0  0  0
    1.2337   -9.1883   10.1888 C   0  0  0  0  0  0  0  0  0  0  0  0
    1.9739  -16.5137   15.6817 C   0  0  0  0  0  0  0  0  0  0  0  0
    1.3002  -18.2478   14.5714 C   0  0  0  0  0  0  0  0  0  0  0  0
   -0.6370  -18.1114   14.8613 O   0  0  0  0  0  0  0  0  0  0  0  0
   -1.3251  -16.1435   14.6430 C   0  0  0  0  0  0  0  0  0  0  0  0
    0.5277  -13.8093   17.4817 H   0  0  0  0  0  0  0  0  0  0  0  0
   -1.2213  -13.9244   16.9312 H   0  0  0  0  0  0  0  0  0  0  0  0
   -0.3515  -15.1580   17.7497 H   0  0  0  0  0  0  0  0  0  0  0  0
   -0.8954  -12.5772   11.3763 H   0  0  0  0  0  0  0  0  0  0  0  0
   -1.3609  -10.1376   11.4227 H   0  0  0  0  0  0  0  0  0  0  0  0
    1.6134  -13.6035   11.3124 H   0  0  0  0  0  0  0  0  0  0  0  0
    3.7186  -10.5352   11.1944 H   0  0  0  0  0  0  0  0  0  0  0  0
    3.3547  -11.5859    9.8145 H   0  0  0  0  0  0  0  0  0  0  0  0
    2.4923   -9.8707    8.7389 H   0  0  0  0  0  0  0  0  0  0  0  0
    0.5806   -9.0393    9.3235 H   0  0  0  0  0  0  0  0  0  0  0  0
    1.2834   -8.2346   10.7198 H   0  0  0  0  0  0  0  0  0  0  0  0
    3.0757  -16.4556   15.5497 H   0  0  0  0  0  0  0  0  0  0  0  0
    2.1362  -16.6610   16.8064 H   0  0  0  0  0  0  0  0  0  0  0  0
    1.3500  -18.6798   13.5447 H   0  0  0  0  0  0  0  0  0  0  0  0
    1.6027  -19.2181   15.0838 H   0  0  0  0  0  0  0  0  0  0  0  0
   -2.4240  -15.4439   14.7518 H   0  0  0  0  0  0  0  0  0  0  0  0
   -2.4059  -16.8128   14.7561 H   0  0  0  0  0  0  0  0  0  0  0  0
  1  2  1  0
  2  3  1  0
  3  4  1  0
  4  5  2  0
  5  6  1  0
  6  7  2  0
  7  8  1  0
  8  9  2  0
  8 10  1  0
 10 11  1  0
 11 12  1  0
  2 13  1  0
 13 14  1  0
 14 15  1  0
 15 16  1  0
 16  2  1  0
  9  4  1  0
 12  7  1  0
  1 17  1  0
  1 18  1  0
  1 19  1  0
  5 20  1  0
  6 21  1  0
  9 22  1  0
 10 23  1  0
 10 24  1  0
 11 25  1  0
 12 26  1  0
 12 27  1  0
 13 28  1  0
 13 29  1  0
 14 30  1  0
 14 31  1  0
 16 32  1  0
 16 33  1  0
M  END
>  <Energy>  (1435) 
1026.4097146551028

>  <compound_id>  (1435) 
62457

>  <target_id>  (1435) 
1

>  <reference_id>  (1435) 
146

>  <inspiration_ids>  (1435) 
[28, 146]

>  <energy_score>  (1435) 
925.5017688710861

>  <distance_score>  (1435) 
15.02358586583238

>  <path>  (1435) 
/opt/xchem-fragalysis-2/maxwin/BulkDock/SCRATCH/511021/C62457-P146/C62457-P146.minimised.mol

>  <scratch_subdir>  (1435) 
/opt/xchem-fragalysis-2/maxwin/BulkDock/SCRATCH/511021/C62457-P146

>  <fragmenstein_runtime>  (1435) 
15.897664070129395

>  <fragmenstein_outcome>  (1435) 
too moved

>  <fragmenstein_mode>  (1435) 
expansion

>  <fragmenstein_error>  (1435) 


$$$$
C62458-P28
     RDKit          3D

 31 33  0  0  0  0  0  0  0  0999 V2000
    0.2955  -13.8283   11.8176 O   0  0  0  0  0  0  0  0  0  0  0  0
    0.4055  -13.5848   10.4096 C   0  0  0  0  0  0  0  0  0  0  0  0
   -0.9427  -13.8766    9.7627 C   0  0  0  0  0  0  0  0  0  0  0  0
   -1.6173  -12.6126    9.7809 O   0  0  0  0  0  0  0  0  0  0  0  0
   -0.5881  -11.6460    9.4591 C   0  0  0  0  0  0  0  0  0  0  0  0
    0.7096  -12.0777   10.1608 C   0  0  0  0  0  0  0  0  0  0  0  0
    1.8956  -11.8785    9.3311 O   0  0  0  0  0  0  0  0  0  0  0  0
    2.9249  -11.0195    9.7189 C   0  0  0  0  0  0  0  0  0  0  0  0
    4.2444  -11.5425    9.6913 C   0  0  0  0  0  0  0  0  0  0  0  0
    5.3943  -10.7499    9.8850 C   0  0  0  0  0  0  0  0  0  0  0  0
    5.2190   -9.3925   10.0079 C   0  0  0  0  0  0  0  0  0  0  0  0
    3.9313   -8.8485   10.0066 C   0  0  0  0  0  0  0  0  0  0  0  0
    2.7758   -9.6419    9.8940 C   0  0  0  0  0  0  0  0  0  0  0  0
    4.0660   -7.3593   10.0372 C   0  0  0  0  0  0  0  0  0  0  0  0
    5.4628   -7.1048    9.6004 N   0  0  0  0  0  0  0  0  0  0  0  0
    6.2311   -8.2964   10.0403 C   0  0  0  0  0  0  0  0  0  0  0  0
   -0.3765  -13.2195   12.1779 H   0  0  0  0  0  0  0  0  0  0  0  0
    1.1593  -14.2633   10.0047 H   0  0  0  0  0  0  0  0  0  0  0  0
   -0.8280  -14.1855    8.7180 H   0  0  0  0  0  0  0  0  0  0  0  0
   -1.5413  -14.6158   10.3014 H   0  0  0  0  0  0  0  0  0  0  0  0
   -0.4677  -11.6081    8.3703 H   0  0  0  0  0  0  0  0  0  0  0  0
   -0.9180  -10.6592    9.7978 H   0  0  0  0  0  0  0  0  0  0  0  0
    0.8160  -11.5317   11.1040 H   0  0  0  0  0  0  0  0  0  0  0  0
    4.3804  -12.6001    9.4764 H   0  0  0  0  0  0  0  0  0  0  0  0
    6.3827  -11.1946    9.8487 H   0  0  0  0  0  0  0  0  0  0  0  0
    1.7964   -9.1791    9.8493 H   0  0  0  0  0  0  0  0  0  0  0  0
    3.9085   -6.9791   11.0515 H   0  0  0  0  0  0  0  0  0  0  0  0
    3.3654   -6.8730    9.3518 H   0  0  0  0  0  0  0  0  0  0  0  0
    5.4640   -7.1216    8.5798 H   0  0  0  0  0  0  0  0  0  0  0  0
    6.6158   -8.1629   11.0563 H   0  0  0  0  0  0  0  0  0  0  0  0
    7.0628   -8.4820    9.3541 H   0  0  0  0  0  0  0  0  0  0  0  0
  1  2  1  0
  2  3  1  0
  3  4  1  0
  4  5  1  0
  5  6  1  0
  6  7  1  0
  7  8  1  0
  8  9  2  0
  9 10  1  0
 10 11  2  0
 11 12  1  0
 12 13  2  0
 12 14  1  0
 14 15  1  0
 15 16  1  0
  6  2  1  0
 13  8  1  0
 16 11  1  0
  1 17  1  0
  2 18  1  0
  3 19  1  0
  3 20  1  0
  5 21  1  0
  5 22  1  0
  6 23  1  0
  9 24  1  0
 10 25  1  0
 13 26  1  0
 14 27  1  0
 14 28  1  0
 15 29  1  0
 16 30  1  0
 16 31  1  0
M  END
>  <Energy>  (1436) 
87.880518493976979

>  <compound_id>  (1436) 
62458

>  <target_id>  (1436) 
1

>  <reference_id>  (1436) 
28

>  <inspiration_ids>  (1436) 
[28, 146]

>  <energy_score>  (1436) 
-8.326334223025128

>  <distance_score>  (1436) 
13.582671830189183

>  <path>  (1436) 
/opt/xchem-fragalysis-2/maxwin/BulkDock/SCRATCH/511021/C62458-P28/C62458-P28.minimised.mol

>  <scratch_subdir>  (1436) 
/opt/xchem-fragalysis-2/maxwin/BulkDock/SCRATCH/511021/C62458-P28

>  <fragmenstein_runtime>  (1436) 
8.61706829071045

>  <fragmenstein_outcome>  (1436) 
too moved

>  <fragmenstein_mode>  (1436) 
expansion

>  <fragmenstein_error>  (1436) 


$$$$
C62458-P146
     RDKit          3D

 31 33  0  0  0  0  0  0  0  0999 V2000
    1.0403  -12.2201    7.6983 O   0  0  0  0  0  0  0  0  0  0  0  0
    1.3811  -12.6830    9.0123 C   0  0  0  0  0  0  0  0  0  0  0  0
    0.2589  -13.5683    9.5672 C   0  0  0  0  0  0  0  0  0  0  0  0
   -0.6902  -12.6923   10.2076 O   0  0  0  0  0  0  0  0  0  0  0  0
   -0.0921  -11.3757   10.2622 C   0  0  0  0  0  0  0  0  0  0  0  0
    1.4194  -11.5141    9.9955 C   0  0  0  0  0  0  0  0  0  0  0  0
    2.0283  -10.2975    9.4815 O   0  0  0  0  0  0  0  0  0  0  0  0
    3.3161   -9.9026    9.8287 C   0  0  0  0  0  0  0  0  0  0  0  0
    4.3638  -10.7545   10.2083 C   0  0  0  0  0  0  0  0  0  0  0  0
    5.6665  -10.2707   10.4813 C   0  0  0  0  0  0  0  0  0  0  0  0
    5.9298   -8.9293   10.2925 C   0  0  0  0  0  0  0  0  0  0  0  0
    4.9145   -8.0696    9.8869 C   0  0  0  0  0  0  0  0  0  0  0  0
    3.6119   -8.5325    9.6772 C   0  0  0  0  0  0  0  0  0  0  0  0
    5.4967   -6.7075    9.6773 C   0  0  0  0  0  0  0  0  0  0  0  0
    6.9491   -6.9407    9.6197 N   0  0  0  0  0  0  0  0  0  0  0  0
    7.2141   -8.1754   10.3843 C   0  0  0  0  0  0  0  0  0  0  0  0
    1.5502  -11.3987    7.5573 H   0  0  0  0  0  0  0  0  0  0  0  0
    2.3345  -13.2093    8.9255 H   0  0  0  0  0  0  0  0  0  0  0  0
    0.6366  -14.2494   10.3361 H   0  0  0  0  0  0  0  0  0  0  0  0
   -0.2580  -14.1399    8.7915 H   0  0  0  0  0  0  0  0  0  0  0  0
   -0.2940  -10.9286   11.2395 H   0  0  0  0  0  0  0  0  0  0  0  0
   -0.5755  -10.7457    9.5068 H   0  0  0  0  0  0  0  0  0  0  0  0
    1.8929  -11.8056   10.9237 H   0  0  0  0  0  0  0  0  0  0  0  0
    4.1972  -11.8251   10.2577 H   0  0  0  0  0  0  0  0  0  0  0  0
    6.4546  -10.9592   10.7708 H   0  0  0  0  0  0  0  0  0  0  0  0
    2.8347   -7.8497    9.3473 H   0  0  0  0  0  0  0  0  0  0  0  0
    5.2152   -6.0588   10.5108 H   0  0  0  0  0  0  0  0  0  0  0  0
    5.1543   -6.2667    8.7368 H   0  0  0  0  0  0  0  0  0  0  0  0
    7.5126   -6.1815    9.9853 H   0  0  0  0  0  0  0  0  0  0  0  0
    8.0458   -8.7261    9.9367 H   0  0  0  0  0  0  0  0  0  0  0  0
    7.4267   -7.9541   11.4349 H   0  0  0  0  0  0  0  0  0  0  0  0
  1  2  1  0
  2  3  1  0
  3  4  1  0
  4  5  1  0
  5  6  1  0
  6  7  1  0
  7  8  1  0
  8  9  2  0
  9 10  1  0
 10 11  2  0
 11 12  1  0
 12 13  2  0
 12 14  1  0
 14 15  1  0
 15 16  1  0
  6  2  1  0
 13  8  1  0
 16 11  1  0
  1 17  1  0
  2 18  1  0
  3 19  1  0
  3 20  1  0
  5 21  1  0
  5 22  1  0
  6 23  1  0
  9 24  1  0
 10 25  1  0
 13 26  1  0
 14 27  1  0
 14 28  1  0
 15 29  1  0
 16 30  1  0
 16 31  1  0
M  END
>  <Energy>  (1437) 
82.723662872307102

>  <compound_id>  (1437) 
62458

>  <target_id>  (1437) 
1

>  <reference_id>  (1437) 
146

>  <inspiration_ids>  (1437) 
[28, 146]

>  <energy_score>  (1437) 
-13.48318984469529

>  <distance_score>  (1437) 
13.326238547436445

>  <path>  (1437) 
/opt/xchem-fragalysis-2/maxwin/BulkDock/SCRATCH/511021/C62458-P146/C62458-P146.minimised.mol

>  <scratch_subdir>  (1437) 
/opt/xchem-fragalysis-2/maxwin/BulkDock/SCRATCH/511021/C62458-P146

>  <fragmenstein_runtime>  (1437) 
8.618967294692993

>  <fragmenstein_outcome>  (1437) 
too moved

>  <fragmenstein_mode>  (1437) 
expansion

>  <fragmenstein_error>  (1437) 


$$$$
C62460-P28
     RDKit          3D

 46 48  0  0  0  0  0  0  0  0999 V2000
    7.0405  -17.4201   11.7447 C   0  0  0  0  0  0  0  0  0  0  0  0
    6.8268  -16.3955   10.6811 N   0  0  0  0  0  0  0  0  0  0  0  0
    5.3635  -16.9676   10.7420 C   0  0  0  0  0  0  0  0  0  0  0  0
    4.6680  -18.3657   10.4369 C   0  0  0  0  0  0  0  0  0  0  0  0
    5.4393  -19.1153    9.4960 O   0  0  0  0  0  0  0  0  0  0  0  0
    4.3377  -19.2408   11.6467 C   0  0  0  0  0  0  0  0  0  0  0  0
    3.1420  -20.0741   11.1968 C   0  0  0  0  0  0  0  0  0  0  0  0
    2.3971  -19.2849   10.2682 O   0  0  0  0  0  0  0  0  0  0  0  0
    3.2115  -18.1506    9.9119 C   0  0  0  0  0  0  0  0  0  0  0  0
    7.3603  -15.1013   11.1101 C   0  0  0  0  0  0  0  0  0  0  0  0
    6.8260  -14.1940   11.6959 O   0  0  0  0  0  0  0  0  0  0  0  0
    8.8199  -14.7522   10.8373 C   0  0  0  0  0  0  0  0  0  0  0  0
    9.7277  -14.7829   11.9157 C   0  0  0  0  0  0  0  0  0  0  0  0
   10.8256  -13.8906   12.0121 C   0  0  0  0  0  0  0  0  0  0  0  0
   11.0399  -12.8890   11.0544 C   0  0  0  0  0  0  0  0  0  0  0  0
   10.1353  -12.8077    9.9843 C   0  0  0  0  0  0  0  0  0  0  0  0
    9.0623  -13.7470    9.8785 C   0  0  0  0  0  0  0  0  0  0  0  0
   10.2522  -11.7010    8.9584 C   0  0  0  0  0  0  0  0  0  0  0  0
   10.1478  -10.3008    9.5648 C   0  0  0  0  0  0  0  0  0  0  0  0
   11.4034   -9.7999   10.1242 N   0  0  0  0  0  0  0  0  0  0  0  0
   11.8609  -10.4748   11.3321 C   0  0  0  0  0  0  0  0  0  0  0  0
   12.2260  -11.9524   11.1669 C   0  0  0  0  0  0  0  0  0  0  0  0
    6.4484  -17.2988   12.6624 H   0  0  0  0  0  0  0  0  0  0  0  0
    8.0786  -17.2993   12.0832 H   0  0  0  0  0  0  0  0  0  0  0  0
    7.0344  -18.4415   11.3470 H   0  0  0  0  0  0  0  0  0  0  0  0
    4.8803  -16.5393   11.6331 H   0  0  0  0  0  0  0  0  0  0  0  0
    4.9619  -16.3488    9.9240 H   0  0  0  0  0  0  0  0  0  0  0  0
    5.6661  -18.5189    8.7600 H   0  0  0  0  0  0  0  0  0  0  0  0
    4.0399  -18.6174   12.4973 H   0  0  0  0  0  0  0  0  0  0  0  0
    5.1641  -19.8840   11.9632 H   0  0  0  0  0  0  0  0  0  0  0  0
    2.5010  -20.3651   12.0338 H   0  0  0  0  0  0  0  0  0  0  0  0
    3.4707  -20.9811   10.6786 H   0  0  0  0  0  0  0  0  0  0  0  0
    3.1833  -18.0384    8.8237 H   0  0  0  0  0  0  0  0  0  0  0  0
    2.7445  -17.2735   10.3721 H   0  0  0  0  0  0  0  0  0  0  0  0
    9.5409  -15.4597   12.7465 H   0  0  0  0  0  0  0  0  0  0  0  0
   11.4843  -13.9766   12.8738 H   0  0  0  0  0  0  0  0  0  0  0  0
    8.3224  -13.6140    9.0885 H   0  0  0  0  0  0  0  0  0  0  0  0
    9.4462  -11.8093    8.2210 H   0  0  0  0  0  0  0  0  0  0  0  0
   11.1853  -11.8227    8.3938 H   0  0  0  0  0  0  0  0  0  0  0  0
    9.8756   -9.6155    8.7529 H   0  0  0  0  0  0  0  0  0  0  0  0
    9.3370  -10.2424   10.2987 H   0  0  0  0  0  0  0  0  0  0  0  0
   11.3120   -8.7967   10.2764 H   0  0  0  0  0  0  0  0  0  0  0  0
   11.1378  -10.3701   12.1426 H   0  0  0  0  0  0  0  0  0  0  0  0
   12.7693   -9.9545   11.6521 H   0  0  0  0  0  0  0  0  0  0  0  0
   12.8783  -12.0954   10.2958 H   0  0  0  0  0  0  0  0  0  0  0  0
   12.8293  -12.2478   12.0354 H   0  0  0  0  0  0  0  0  0  0  0  0
  1  2  1  0
  2  3  1  0
  3  4  1  0
  4  5  1  0
  4  6  1  0
  6  7  1  0
  7  8  1  0
  8  9  1  0
  2 10  1  0
 10 11  2  0
 10 12  1  0
 12 13  2  0
 13 14  1  0
 14 15  2  0
 15 16  1  0
 16 17  2  0
 16 18  1  0
 18 19  1  0
 19 20  1  0
 20 21  1  0
 21 22  1  0
  9  4  1  0
 17 12  1  0
 22 15  1  0
  1 23  1  0
  1 24  1  0
  1 25  1  0
  3 26  1  0
  3 27  1  0
  5 28  1  0
  6 29  1  0
  6 30  1  0
  7 31  1  0
  7 32  1  0
  9 33  1  0
  9 34  1  0
 13 35  1  0
 14 36  1  0
 17 37  1  0
 18 38  1  0
 18 39  1  0
 19 40  1  0
 19 41  1  0
 20 42  1  0
 21 43  1  0
 21 44  1  0
 22 45  1  0
 22 46  1  0
M  END
>  <Energy>  (1438) 
204.07692939343343

>  <compound_id>  (1438) 
62460

>  <target_id>  (1438) 
1

>  <reference_id>  (1438) 
28

>  <inspiration_ids>  (1438) 
[28, 146]

>  <energy_score>  (1438) 
42.42891032642842

>  <distance_score>  (1438) 
12.872954290657585

>  <path>  (1438) 
/opt/xchem-fragalysis-2/maxwin/BulkDock/SCRATCH/511021/C62460-P28/C62460-P28.minimised.mol

>  <scratch_subdir>  (1438) 
/opt/xchem-fragalysis-2/maxwin/BulkDock/SCRATCH/511021/C62460-P28

>  <fragmenstein_runtime>  (1438) 
23.159058332443237

>  <fragmenstein_outcome>  (1438) 
too moved

>  <fragmenstein_mode>  (1438) 
expansion

>  <fragmenstein_error>  (1438) 


$$$$
C62460-P146
     RDKit          3D

 46 48  0  0  0  0  0  0  0  0999 V2000
    3.2444  -10.4057   11.3637 C   0  0  0  0  0  0  0  0  0  0  0  0
    4.5447  -11.1442   11.2879 N   0  0  0  0  0  0  0  0  0  0  0  0
    3.3053  -12.3271   10.6786 C   0  0  0  0  0  0  0  0  0  0  0  0
    1.4838  -12.8873   11.3910 C   0  0  0  0  0  0  0  0  0  0  0  0
    1.2478  -12.6394   13.1338 O   0  0  0  0  0  0  0  0  0  0  0  0
    1.1846  -14.4398   11.5660 C   0  0  0  0  0  0  0  0  0  0  0  0
   -0.2386  -14.5321   11.6693 C   0  0  0  0  0  0  0  0  0  0  0  0
   -0.4939  -13.2577   12.1474 O   0  0  0  0  0  0  0  0  0  0  0  0
    0.1597  -12.2186   11.4109 C   0  0  0  0  0  0  0  0  0  0  0  0
    5.7386  -11.1442   12.9311 C   0  0  0  0  0  0  0  0  0  0  0  0
    5.5262  -12.0684   13.6899 O   0  0  0  0  0  0  0  0  0  0  0  0
    7.3362  -10.0600   13.6392 C   0  0  0  0  0  0  0  0  0  0  0  0
    8.7078  -10.5622   14.6847 C   0  0  0  0  0  0  0  0  0  0  0  0
    9.7554   -9.4114   15.4988 C   0  0  0  0  0  0  0  0  0  0  0  0
    9.7108   -7.5916   15.3338 C   0  0  0  0  0  0  0  0  0  0  0  0
    8.5037   -6.8856   14.6504 C   0  0  0  0  0  0  0  0  0  0  0  0
    7.3382   -8.1898   13.9692 C   0  0  0  0  0  0  0  0  0  0  0  0
    8.7311   -4.8756   14.7159 C   0  0  0  0  0  0  0  0  0  0  0  0
    9.9264   -3.4245   14.8519 C   0  0  0  0  0  0  0  0  0  0  0  0
   11.3143   -3.6014   15.3212 N   0  0  0  0  0  0  0  0  0  0  0  0
   11.5747   -4.7164   16.2176 C   0  0  0  0  0  0  0  0  0  0  0  0
   11.2547   -6.4448   15.9110 C   0  0  0  0  0  0  0  0  0  0  0  0
    2.5230  -10.4856   10.5467 H   0  0  0  0  0  0  0  0  0  0  0  0
    3.3941   -9.3304   11.4566 H   0  0  0  0  0  0  0  0  0  0  0  0
    2.7051  -10.8910   12.1377 H   0  0  0  0  0  0  0  0  0  0  0  0
    3.9772  -13.0382   10.1510 H   0  0  0  0  0  0  0  0  0  0  0  0
    3.0720  -11.9075    9.6829 H   0  0  0  0  0  0  0  0  0  0  0  0
    0.4044  -13.0864   13.3727 H   0  0  0  0  0  0  0  0  0  0  0  0
    1.5325  -14.6372   12.5287 H   0  0  0  0  0  0  0  0  0  0  0  0
    1.5168  -15.3034   10.9778 H   0  0  0  0  0  0  0  0  0  0  0  0
   -0.3704  -15.2140   12.4382 H   0  0  0  0  0  0  0  0  0  0  0  0
   -0.8607  -14.8834   10.8600 H   0  0  0  0  0  0  0  0  0  0  0  0
   -0.5141  -12.0071   10.6232 H   0  0  0  0  0  0  0  0  0  0  0  0
    0.1445  -11.2835   11.9413 H   0  0  0  0  0  0  0  0  0  0  0  0
    9.1781  -11.5494   14.5466 H   0  0  0  0  0  0  0  0  0  0  0  0
   10.6366   -9.8911   15.9457 H   0  0  0  0  0  0  0  0  0  0  0  0
    6.3652   -7.7868   13.6329 H   0  0  0  0  0  0  0  0  0  0  0  0
    8.2475   -4.5314   15.6414 H   0  0  0  0  0  0  0  0  0  0  0  0
    9.8096   -4.9199   14.4908 H   0  0  0  0  0  0  0  0  0  0  0  0
    9.3890   -2.5448   15.2345 H   0  0  0  0  0  0  0  0  0  0  0  0
   10.1483   -2.9986   13.8646 H   0  0  0  0  0  0  0  0  0  0  0  0
   11.9188   -3.6937   14.5024 H   0  0  0  0  0  0  0  0  0  0  0  0
   12.6508   -4.6771   16.4593 H   0  0  0  0  0  0  0  0  0  0  0  0
   11.1731   -4.4652   17.1852 H   0  0  0  0  0  0  0  0  0  0  0  0
   12.1841   -7.0343   16.0601 H   0  0  0  0  0  0  0  0  0  0  0  0
   11.0785   -6.4464   16.9000 H   0  0  0  0  0  0  0  0  0  0  0  0
  1  2  1  0
  2  3  1  0
  3  4  1  0
  4  5  1  0
  4  6  1  0
  6  7  1  0
  7  8  1  0
  8  9  1  0
  2 10  1  0
 10 11  2  0
 10 12  1  0
 12 13  2  0
 13 14  1  0
 14 15  2  0
 15 16  1  0
 16 17  2  0
 16 18  1  0
 18 19  1  0
 19 20  1  0
 20 21  1  0
 21 22  1  0
  9  4  1  0
 17 12  1  0
 22 15  1  0
  1 23  1  0
  1 24  1  0
  1 25  1  0
  3 26  1  0
  3 27  1  0
  5 28  1  0
  6 29  1  0
  6 30  1  0
  7 31  1  0
  7 32  1  0
  9 33  1  0
  9 34  1  0
 13 35  1  0
 14 36  1  0
 17 37  1  0
 18 38  1  0
 18 39  1  0
 19 40  1  0
 19 41  1  0
 20 42  1  0
 21 43  1  0
 21 44  1  0
 22 45  1  0
 22 46  1  0
M  END
>  <Energy>  (1439) 
1238.7817827435076

>  <compound_id>  (1439) 
62460

>  <target_id>  (1439) 
1

>  <reference_id>  (1439) 
146

>  <inspiration_ids>  (1439) 
[28, 146]

>  <energy_score>  (1439) 
1077.133763676517

>  <distance_score>  (1439) 
10.423851447090433

>  <path>  (1439) 
/opt/xchem-fragalysis-2/maxwin/BulkDock/SCRATCH/511021/C62460-P146/C62460-P146.minimised.mol

>  <scratch_subdir>  (1439) 
/opt/xchem-fragalysis-2/maxwin/BulkDock/SCRATCH/511021/C62460-P146

>  <fragmenstein_runtime>  (1439) 
22.72042965888977

>  <fragmenstein_outcome>  (1439) 
too moved

>  <fragmenstein_mode>  (1439) 
expansion

>  <fragmenstein_error>  (1439) 


$$$$
C62458-P28
     RDKit          3D

 31 33  0  0  0  0  0  0  0  0999 V2000
    0.2955  -13.8283   11.8176 O   0  0  0  0  0  0  0  0  0  0  0  0
    0.4055  -13.5848   10.4096 C   0  0  0  0  0  0  0  0  0  0  0  0
   -0.9427  -13.8766    9.7627 C   0  0  0  0  0  0  0  0  0  0  0  0
   -1.6173  -12.6126    9.7809 O   0  0  0  0  0  0  0  0  0  0  0  0
   -0.5881  -11.6460    9.4591 C   0  0  0  0  0  0  0  0  0  0  0  0
    0.7096  -12.0777   10.1608 C   0  0  0  0  0  0  0  0  0  0  0  0
    1.8956  -11.8785    9.3311 O   0  0  0  0  0  0  0  0  0  0  0  0
    2.9249  -11.0195    9.7189 C   0  0  0  0  0  0  0  0  0  0  0  0
    4.2444  -11.5425    9.6913 C   0  0  0  0  0  0  0  0  0  0  0  0
    5.3943  -10.7499    9.8850 C   0  0  0  0  0  0  0  0  0  0  0  0
    5.2190   -9.3925   10.0079 C   0  0  0  0  0  0  0  0  0  0  0  0
    3.9313   -8.8485   10.0066 C   0  0  0  0  0  0  0  0  0  0  0  0
    2.7758   -9.6419    9.8940 C   0  0  0  0  0  0  0  0  0  0  0  0
    4.0660   -7.3593   10.0372 C   0  0  0  0  0  0  0  0  0  0  0  0
    5.4628   -7.1048    9.6004 N   0  0  0  0  0  0  0  0  0  0  0  0
    6.2311   -8.2964   10.0403 C   0  0  0  0  0  0  0  0  0  0  0  0
   -0.3765  -13.2195   12.1779 H   0  0  0  0  0  0  0  0  0  0  0  0
    1.1593  -14.2633   10.0047 H   0  0  0  0  0  0  0  0  0  0  0  0
   -0.8280  -14.1855    8.7180 H   0  0  0  0  0  0  0  0  0  0  0  0
   -1.5413  -14.6158   10.3014 H   0  0  0  0  0  0  0  0  0  0  0  0
   -0.4677  -11.6081    8.3703 H   0  0  0  0  0  0  0  0  0  0  0  0
   -0.9180  -10.6592    9.7978 H   0  0  0  0  0  0  0  0  0  0  0  0
    0.8160  -11.5317   11.1040 H   0  0  0  0  0  0  0  0  0  0  0  0
    4.3804  -12.6001    9.4764 H   0  0  0  0  0  0  0  0  0  0  0  0
    6.3827  -11.1946    9.8487 H   0  0  0  0  0  0  0  0  0  0  0  0
    1.7964   -9.1791    9.8493 H   0  0  0  0  0  0  0  0  0  0  0  0
    3.9085   -6.9791   11.0515 H   0  0  0  0  0  0  0  0  0  0  0  0
    3.3654   -6.8730    9.3518 H   0  0  0  0  0  0  0  0  0  0  0  0
    5.4640   -7.1216    8.5798 H   0  0  0  0  0  0  0  0  0  0  0  0
    6.6158   -8.1629   11.0563 H   0  0  0  0  0  0  0  0  0  0  0  0
    7.0628   -8.4820    9.3541 H   0  0  0  0  0  0  0  0  0  0  0  0
  1  2  1  0
  2  3  1  0
  3  4  1  0
  4  5  1  0
  5  6  1  0
  6  7  1  0
  7  8  1  0
  8  9  2  0
  9 10  1  0
 10 11  2  0
 11 12  1  0
 12 13  2  0
 12 14  1  0
 14 15  1  0
 15 16  1  0
  6  2  1  0
 13  8  1  0
 16 11  1  0
  1 17  1  0
  2 18  1  0
  3 19  1  0
  3 20  1  0
  5 21  1  0
  5 22  1  0
  6 23  1  0
  9 24  1  0
 10 25  1  0
 13 26  1  0
 14 27  1  0
 14 28  1  0
 15 29  1  0
 16 30  1  0
 16 31  1  0
M  END
>  <Energy>  (1440) 
87.880518493976979

>  <compound_id>  (1440) 
62458

>  <target_id>  (1440) 
1

>  <reference_id>  (1440) 
28

>  <inspiration_ids>  (1440) 
[28, 146]

>  <energy_score>  (1440) 
-8.326334223025128

>  <distance_score>  (1440) 
13.582671830189183

>  <path>  (1440) 
/opt/xchem-fragalysis-2/maxwin/BulkDock/SCRATCH/511021/C62458-P28/C62458-P28.minimised.mol

>  <scratch_subdir>  (1440) 
/opt/xchem-fragalysis-2/maxwin/BulkDock/SCRATCH/511021/C62458-P28

>  <fragmenstein_runtime>  (1440) 
9.48969841003418

>  <fragmenstein_outcome>  (1440) 
too moved

>  <fragmenstein_mode>  (1440) 
expansion

>  <fragmenstein_error>  (1440) 


$$$$
C62458-P146
     RDKit          3D

 31 33  0  0  0  0  0  0  0  0999 V2000
    1.0403  -12.2201    7.6983 O   0  0  0  0  0  0  0  0  0  0  0  0
    1.3811  -12.6830    9.0123 C   0  0  0  0  0  0  0  0  0  0  0  0
    0.2589  -13.5683    9.5672 C   0  0  0  0  0  0  0  0  0  0  0  0
   -0.6902  -12.6923   10.2076 O   0  0  0  0  0  0  0  0  0  0  0  0
   -0.0921  -11.3757   10.2622 C   0  0  0  0  0  0  0  0  0  0  0  0
    1.4194  -11.5141    9.9955 C   0  0  0  0  0  0  0  0  0  0  0  0
    2.0283  -10.2975    9.4815 O   0  0  0  0  0  0  0  0  0  0  0  0
    3.3161   -9.9026    9.8287 C   0  0  0  0  0  0  0  0  0  0  0  0
    4.3638  -10.7545   10.2083 C   0  0  0  0  0  0  0  0  0  0  0  0
    5.6665  -10.2707   10.4813 C   0  0  0  0  0  0  0  0  0  0  0  0
    5.9298   -8.9293   10.2925 C   0  0  0  0  0  0  0  0  0  0  0  0
    4.9145   -8.0696    9.8869 C   0  0  0  0  0  0  0  0  0  0  0  0
    3.6119   -8.5325    9.6772 C   0  0  0  0  0  0  0  0  0  0  0  0
    5.4967   -6.7075    9.6773 C   0  0  0  0  0  0  0  0  0  0  0  0
    6.9491   -6.9407    9.6197 N   0  0  0  0  0  0  0  0  0  0  0  0
    7.2141   -8.1754   10.3843 C   0  0  0  0  0  0  0  0  0  0  0  0
    1.5502  -11.3987    7.5573 H   0  0  0  0  0  0  0  0  0  0  0  0
    2.3345  -13.2093    8.9255 H   0  0  0  0  0  0  0  0  0  0  0  0
    0.6366  -14.2494   10.3361 H   0  0  0  0  0  0  0  0  0  0  0  0
   -0.2580  -14.1399    8.7915 H   0  0  0  0  0  0  0  0  0  0  0  0
   -0.2940  -10.9286   11.2395 H   0  0  0  0  0  0  0  0  0  0  0  0
   -0.5755  -10.7457    9.5068 H   0  0  0  0  0  0  0  0  0  0  0  0
    1.8929  -11.8056   10.9237 H   0  0  0  0  0  0  0  0  0  0  0  0
    4.1972  -11.8251   10.2577 H   0  0  0  0  0  0  0  0  0  0  0  0
    6.4546  -10.9592   10.7708 H   0  0  0  0  0  0  0  0  0  0  0  0
    2.8347   -7.8497    9.3473 H   0  0  0  0  0  0  0  0  0  0  0  0
    5.2152   -6.0588   10.5108 H   0  0  0  0  0  0  0  0  0  0  0  0
    5.1543   -6.2667    8.7368 H   0  0  0  0  0  0  0  0  0  0  0  0
    7.5126   -6.1815    9.9853 H   0  0  0  0  0  0  0  0  0  0  0  0
    8.0458   -8.7261    9.9367 H   0  0  0  0  0  0  0  0  0  0  0  0
    7.4267   -7.9541   11.4349 H   0  0  0  0  0  0  0  0  0  0  0  0
  1  2  1  0
  2  3  1  0
  3  4  1  0
  4  5  1  0
  5  6  1  0
  6  7  1  0
  7  8  1  0
  8  9  2  0
  9 10  1  0
 10 11  2  0
 11 12  1  0
 12 13  2  0
 12 14  1  0
 14 15  1  0
 15 16  1  0
  6  2  1  0
 13  8  1  0
 16 11  1  0
  1 17  1  0
  2 18  1  0
  3 19  1  0
  3 20  1  0
  5 21  1  0
  5 22  1  0
  6 23  1  0
  9 24  1  0
 10 25  1  0
 13 26  1  0
 14 27  1  0
 14 28  1  0
 15 29  1  0
 16 30  1  0
 16 31  1  0
M  END
>  <Energy>  (1441) 
82.723662872307102

>  <compound_id>  (1441) 
62458

>  <target_id>  (1441) 
1

>  <reference_id>  (1441) 
146

>  <inspiration_ids>  (1441) 
[28, 146]

>  <energy_score>  (1441) 
-13.48318984469529

>  <distance_score>  (1441) 
13.326238547436445

>  <path>  (1441) 
/opt/xchem-fragalysis-2/maxwin/BulkDock/SCRATCH/511021/C62458-P146/C62458-P146.minimised.mol

>  <scratch_subdir>  (1441) 
/opt/xchem-fragalysis-2/maxwin/BulkDock/SCRATCH/511021/C62458-P146

>  <fragmenstein_runtime>  (1441) 
9.37611174583435

>  <fragmenstein_outcome>  (1441) 
too moved

>  <fragmenstein_mode>  (1441) 
expansion

>  <fragmenstein_error>  (1441) 


$$$$
C11942-P63
     RDKit          3D

 38 39  0  0  0  0  0  0  0  0999 V2000
   -0.9623   -2.0779   28.8861 C   0  0  0  0  0  0  0  0  0  0  0  0
    0.3093   -1.2652   29.2230 C   0  0  0  0  0  0  0  0  0  0  0  0
    0.5315   -1.2846   30.7641 C   0  0  0  0  0  0  0  0  0  0  0  0
   -0.6701   -1.0362   31.5644 N   0  0  0  0  0  0  0  0  0  0  0  0
   -1.6547   -1.9425   32.0951 C   0  0  0  0  0  0  0  0  0  0  0  0
   -1.7870   -3.1245   31.9523 O   0  0  0  0  0  0  0  0  0  0  0  0
   -2.6935   -1.2877   32.9658 C   0  0  0  0  0  0  0  0  0  0  0  0
   -4.0367   -1.6673   32.8304 C   0  0  0  0  0  0  0  0  0  0  0  0
   -4.9815   -1.1103   33.6778 C   0  0  0  0  0  0  0  0  0  0  0  0
   -4.6741   -0.2274   34.6496 N   0  0  0  0  0  0  0  0  0  0  0  0
   -3.3676    0.1108   34.7718 C   0  0  0  0  0  0  0  0  0  0  0  0
   -2.3488   -0.3830   33.9670 C   0  0  0  0  0  0  0  0  0  0  0  0
    1.5022   -1.7675   28.4828 N   0  0  0  0  0  0  0  0  0  0  0  0
    2.5087   -1.0499   27.6609 C   0  0  0  0  0  0  0  0  0  0  0  0
    2.6547    0.1228   27.4547 O   0  0  0  0  0  0  0  0  0  0  0  0
    3.4704   -2.1069   27.0534 C   0  0  0  0  0  0  0  0  0  0  0  0
    4.6764   -1.7137   26.2045 C   0  0  0  0  0  0  0  0  0  0  0  0
    5.9387   -2.0350   26.4702 N   0  0  0  0  0  0  0  0  0  0  0  0
    6.6672   -1.7974   25.3277 C   0  0  0  0  0  0  0  0  0  0  0  0
    5.8499   -1.3368   24.3333 C   0  0  0  0  0  0  0  0  0  0  0  0
    4.6037   -1.2393   24.9128 N   0  0  0  0  0  0  0  0  0  0  0  0
   -1.8604   -1.6339   29.3221 H   0  0  0  0  0  0  0  0  0  0  0  0
   -0.8684   -3.1156   29.2220 H   0  0  0  0  0  0  0  0  0  0  0  0
   -1.1085   -2.0939   27.8059 H   0  0  0  0  0  0  0  0  0  0  0  0
    0.1528   -0.2285   28.9026 H   0  0  0  0  0  0  0  0  0  0  0  0
    0.9122   -2.2686   31.0624 H   0  0  0  0  0  0  0  0  0  0  0  0
    1.2803   -0.5369   31.0457 H   0  0  0  0  0  0  0  0  0  0  0  0
   -0.8187   -0.1170   31.9624 H   0  0  0  0  0  0  0  0  0  0  0  0
   -4.3356   -2.3927   32.0797 H   0  0  0  0  0  0  0  0  0  0  0  0
   -6.0323   -1.3727   33.5940 H   0  0  0  0  0  0  0  0  0  0  0  0
   -3.1504    0.8101   35.5756 H   0  0  0  0  0  0  0  0  0  0  0  0
   -1.3214   -0.0962   34.1570 H   0  0  0  0  0  0  0  0  0  0  0  0
    1.6266   -2.7672   28.3640 H   0  0  0  0  0  0  0  0  0  0  0  0
    2.8529   -2.7676   26.4448 H   0  0  0  0  0  0  0  0  0  0  0  0
    3.8573   -2.6885   27.8994 H   0  0  0  0  0  0  0  0  0  0  0  0
    7.7319   -1.9846   25.2940 H   0  0  0  0  0  0  0  0  0  0  0  0
    6.0116   -1.0442   23.3075 H   0  0  0  0  0  0  0  0  0  0  0  0
    3.7731   -0.8941   24.4403 H   0  0  0  0  0  0  0  0  0  0  0  0
  1  2  1  0
  2  3  1  0
  3  4  1  0
  4  5  1  0
  5  6  2  0
  5  7  1  0
  7  8  2  0
  8  9  1  0
  9 10  2  0
 10 11  1  0
 11 12  2  0
  2 13  1  0
 13 14  1  0
 14 15  2  0
 14 16  1  0
 16 17  1  0
 17 18  2  0
 18 19  1  0
 19 20  2  0
 20 21  1  0
 12  7  1  0
 21 17  1  0
  1 22  1  0
  1 23  1  0
  1 24  1  0
  2 25  1  0
  3 26  1  0
  3 27  1  0
  4 28  1  0
  8 29  1  0
  9 30  1  0
 11 31  1  0
 12 32  1  0
 13 33  1  0
 16 34  1  0
 16 35  1  0
 19 36  1  0
 20 37  1  0
 21 38  1  0
M  END
>  <Energy>  (1442) 
32.827529182817678

>  <compound_id>  (1442) 
11942

>  <target_id>  (1442) 
1

>  <reference_id>  (1442) 
63

>  <inspiration_ids>  (1442) 
[63, 7]

>  <energy_score>  (1442) 
3.3663780459442023

>  <distance_score>  (1442) 
12.196672793952555

>  <path>  (1442) 
/opt/xchem-fragalysis-2/maxwin/BulkDock/SCRATCH/511021/C11942-P63/C11942-P63.minimised.mol

>  <scratch_subdir>  (1442) 
/opt/xchem-fragalysis-2/maxwin/BulkDock/SCRATCH/511021/C11942-P63

>  <fragmenstein_runtime>  (1442) 
17.520344972610474

>  <fragmenstein_outcome>  (1442) 
too moved

>  <fragmenstein_mode>  (1442) 
expansion

>  <fragmenstein_error>  (1442) 


$$$$
C11942-P7
     RDKit          3D

 38 39  0  0  0  0  0  0  0  0999 V2000
   -0.7488   -2.3573   29.0638 C   0  0  0  0  0  0  0  0  0  0  0  0
    0.1970   -1.1285   29.0076 C   0  0  0  0  0  0  0  0  0  0  0  0
    0.3733   -0.5544   30.4449 C   0  0  0  0  0  0  0  0  0  0  0  0
   -0.8619   -0.5451   31.2358 N   0  0  0  0  0  0  0  0  0  0  0  0
   -1.6236    0.5406   31.7769 C   0  0  0  0  0  0  0  0  0  0  0  0
   -1.4913    1.7232   31.6568 O   0  0  0  0  0  0  0  0  0  0  0  0
   -2.8389    0.1081   32.5776 C   0  0  0  0  0  0  0  0  0  0  0  0
   -2.9076   -1.0666   33.3336 C   0  0  0  0  0  0  0  0  0  0  0  0
   -4.0854   -1.3618   34.0144 C   0  0  0  0  0  0  0  0  0  0  0  0
   -5.1793   -0.5754   34.0038 N   0  0  0  0  0  0  0  0  0  0  0  0
   -5.0824    0.5660   33.2876 C   0  0  0  0  0  0  0  0  0  0  0  0
   -3.9532    0.9514   32.5788 C   0  0  0  0  0  0  0  0  0  0  0  0
    1.4911   -1.4615   28.3455 N   0  0  0  0  0  0  0  0  0  0  0  0
    2.4292   -0.6185   27.5785 C   0  0  0  0  0  0  0  0  0  0  0  0
    2.4217    0.5619   27.3650 O   0  0  0  0  0  0  0  0  0  0  0  0
    3.5496   -1.5244   26.9804 C   0  0  0  0  0  0  0  0  0  0  0  0
    4.7427   -0.8637   26.2870 C   0  0  0  0  0  0  0  0  0  0  0  0
    6.0214   -1.0695   26.5892 N   0  0  0  0  0  0  0  0  0  0  0  0
    6.7747   -0.4869   25.5916 C   0  0  0  0  0  0  0  0  0  0  0  0
    5.9556    0.0314   24.6278 C   0  0  0  0  0  0  0  0  0  0  0  0
    4.6794   -0.1937   25.0863 N   0  0  0  0  0  0  0  0  0  0  0  0
   -0.3863   -3.0983   29.7844 H   0  0  0  0  0  0  0  0  0  0  0  0
   -0.7805   -2.8466   28.0881 H   0  0  0  0  0  0  0  0  0  0  0  0
   -1.7715   -2.0716   29.3264 H   0  0  0  0  0  0  0  0  0  0  0  0
   -0.2747   -0.3599   28.3836 H   0  0  0  0  0  0  0  0  0  0  0  0
    0.7695    0.4655   30.3976 H   0  0  0  0  0  0  0  0  0  0  0  0
    1.0898   -1.1667   31.0037 H   0  0  0  0  0  0  0  0  0  0  0  0
   -1.3115   -1.4162   31.4796 H   0  0  0  0  0  0  0  0  0  0  0  0
   -2.0638   -1.7401   33.4276 H   0  0  0  0  0  0  0  0  0  0  0  0
   -4.1712   -2.2703   34.6051 H   0  0  0  0  0  0  0  0  0  0  0  0
   -5.9746    1.1822   33.2843 H   0  0  0  0  0  0  0  0  0  0  0  0
   -3.9550    1.8832   32.0211 H   0  0  0  0  0  0  0  0  0  0  0  0
    1.7618   -2.4342   28.2473 H   0  0  0  0  0  0  0  0  0  0  0  0
    3.0819   -2.2065   26.2641 H   0  0  0  0  0  0  0  0  0  0  0  0
    3.9489   -2.1312   27.8032 H   0  0  0  0  0  0  0  0  0  0  0  0
    7.8565   -0.5024   25.6193 H   0  0  0  0  0  0  0  0  0  0  0  0
    6.1363    0.5277   23.6859 H   0  0  0  0  0  0  0  0  0  0  0  0
    3.8373   -0.0090   24.5521 H   0  0  0  0  0  0  0  0  0  0  0  0
  1  2  1  0
  2  3  1  0
  3  4  1  0
  4  5  1  0
  5  6  2  0
  5  7  1  0
  7  8  2  0
  8  9  1  0
  9 10  2  0
 10 11  1  0
 11 12  2  0
  2 13  1  0
 13 14  1  0
 14 15  2  0
 14 16  1  0
 16 17  1  0
 17 18  2  0
 18 19  1  0
 19 20  2  0
 20 21  1  0
 12  7  1  0
 21 17  1  0
  1 22  1  0
  1 23  1  0
  1 24  1  0
  2 25  1  0
  3 26  1  0
  3 27  1  0
  4 28  1  0
  8 29  1  0
  9 30  1  0
 11 31  1  0
 12 32  1  0
 13 33  1  0
 16 34  1  0
 16 35  1  0
 19 36  1  0
 20 37  1  0
 21 38  1  0
M  END
>  <Energy>  (1443) 
32.535029172144881

>  <compound_id>  (1443) 
11942

>  <target_id>  (1443) 
1

>  <reference_id>  (1443) 
7

>  <inspiration_ids>  (1443) 
[63, 7]

>  <energy_score>  (1443) 
3.0738780352706954

>  <distance_score>  (1443) 
12.44274256793689

>  <path>  (1443) 
/opt/xchem-fragalysis-2/maxwin/BulkDock/SCRATCH/511021/C11942-P7/C11942-P7.minimised.mol

>  <scratch_subdir>  (1443) 
/opt/xchem-fragalysis-2/maxwin/BulkDock/SCRATCH/511021/C11942-P7

>  <fragmenstein_runtime>  (1443) 
11.94662857055664

>  <fragmenstein_outcome>  (1443) 
too moved

>  <fragmenstein_mode>  (1443) 
expansion

>  <fragmenstein_error>  (1443) 


$$$$
C8989-P63
     RDKit          3D

 35 36  0  0  0  0  0  0  0  0999 V2000
   -4.3426   -0.4503   19.4727 C   0  0  0  0  0  0  0  0  0  0  0  0
   -3.8139   -1.2081   20.6833 C   0  0  0  0  0  0  0  0  0  0  0  0
   -2.3042   -0.8690   20.9507 C   0  0  0  0  0  0  0  0  0  0  0  0
   -1.2252   -1.0046   19.9843 N   0  0  0  0  0  0  0  0  0  0  0  0
   -0.9357   -2.0348   19.0403 C   0  0  0  0  0  0  0  0  0  0  0  0
   -1.5498   -3.0161   18.7432 O   0  0  0  0  0  0  0  0  0  0  0  0
    0.4312   -1.8007   18.4470 C   0  0  0  0  0  0  0  0  0  0  0  0
    1.0485   -2.6398   17.5276 C   0  0  0  0  0  0  0  0  0  0  0  0
    2.6244   -2.0780   17.1337 S   0  0  0  0  0  0  0  0  0  0  0  0
    2.4075   -0.7736   18.2204 C   0  0  0  0  0  0  0  0  0  0  0  0
    1.2437   -0.7123   18.8361 N   0  0  0  0  0  0  0  0  0  0  0  0
   -4.5815   -0.8319   21.9094 N   0  0  0  0  0  0  0  0  0  0  0  0
   -5.9942   -1.0290   22.2604 C   0  0  0  0  0  0  0  0  0  0  0  0
   -6.9045   -1.4716   21.6174 O   0  0  0  0  0  0  0  0  0  0  0  0
   -6.1947   -0.4927   23.7016 C   0  0  0  0  0  0  0  0  0  0  0  0
   -7.5733   -0.5053   24.3387 C   0  0  0  0  0  0  0  0  0  0  0  0
   -8.0002    0.3735   25.2390 N   0  0  0  0  0  0  0  0  0  0  0  0
   -9.1637   -0.1299   25.7665 C   0  0  0  0  0  0  0  0  0  0  0  0
   -9.4749   -1.3226   25.1663 C   0  0  0  0  0  0  0  0  0  0  0  0
   -8.4907   -1.5248   24.2289 N   0  0  0  0  0  0  0  0  0  0  0  0
   -4.2591    0.6326   19.6160 H   0  0  0  0  0  0  0  0  0  0  0  0
   -5.3996   -0.6783   19.2998 H   0  0  0  0  0  0  0  0  0  0  0  0
   -3.7895   -0.7202   18.5678 H   0  0  0  0  0  0  0  0  0  0  0  0
   -3.9487   -2.2829   20.5292 H   0  0  0  0  0  0  0  0  0  0  0  0
   -1.9771   -1.4548   21.8172 H   0  0  0  0  0  0  0  0  0  0  0  0
   -2.2480    0.1845   21.2515 H   0  0  0  0  0  0  0  0  0  0  0  0
   -0.4321   -0.3663   20.0313 H   0  0  0  0  0  0  0  0  0  0  0  0
    0.6485   -3.5441   17.0896 H   0  0  0  0  0  0  0  0  0  0  0  0
    3.1850   -0.0396   18.3842 H   0  0  0  0  0  0  0  0  0  0  0  0
   -4.0721   -0.5080   22.7363 H   0  0  0  0  0  0  0  0  0  0  0  0
   -5.8410    0.5462   23.7156 H   0  0  0  0  0  0  0  0  0  0  0  0
   -5.5365   -1.0832   24.3499 H   0  0  0  0  0  0  0  0  0  0  0  0
   -9.7071    0.3947   26.5414 H   0  0  0  0  0  0  0  0  0  0  0  0
  -10.2963   -2.0130   25.2901 H   0  0  0  0  0  0  0  0  0  0  0  0
   -8.4204   -2.2981   23.5787 H   0  0  0  0  0  0  0  0  0  0  0  0
  1  2  1  0
  2  3  1  0
  3  4  1  0
  4  5  1  0
  5  6  2  0
  5  7  1  0
  7  8  2  0
  8  9  1  0
  9 10  1  0
 10 11  2  0
  2 12  1  0
 12 13  1  0
 13 14  2  0
 13 15  1  0
 15 16  1  0
 16 17  2  0
 17 18  1  0
 18 19  2  0
 19 20  1  0
 11  7  1  0
 20 16  1  0
  1 21  1  0
  1 22  1  0
  1 23  1  0
  2 24  1  0
  3 25  1  0
  3 26  1  0
  4 27  1  0
  8 28  1  0
 10 29  1  0
 12 30  1  0
 15 31  1  0
 15 32  1  0
 18 33  1  0
 19 34  1  0
 20 35  1  0
M  END
>  <Energy>  (1444) 
39.423254654983005

>  <compound_id>  (1444) 
8989

>  <target_id>  (1444) 
1

>  <reference_id>  (1444) 
63

>  <inspiration_ids>  (1444) 
[63, 7]

>  <energy_score>  (1444) 
-72.4730529387821

>  <distance_score>  (1444) 
14.0149253363547

>  <path>  (1444) 
/opt/xchem-fragalysis-2/maxwin/BulkDock/SCRATCH/511021/C8989-P63/C8989-P63.minimised.mol

>  <scratch_subdir>  (1444) 
/opt/xchem-fragalysis-2/maxwin/BulkDock/SCRATCH/511021/C8989-P63

>  <fragmenstein_runtime>  (1444) 
16.66792106628418

>  <fragmenstein_outcome>  (1444) 
too moved

>  <fragmenstein_mode>  (1444) 
expansion

>  <fragmenstein_error>  (1444) 


$$$$
C8989-P7
     RDKit          3D

 35 36  0  0  0  0  0  0  0  0999 V2000
   -6.6473   -6.6802   27.8638 C   0  0  0  0  0  0  0  0  0  0  0  0
   -5.2541   -7.8215   27.8597 C   0  0  0  0  0  0  0  0  0  0  0  0
   -3.2621   -7.2454   27.3083 C   0  0  0  0  0  0  0  0  0  0  0  0
   -1.7115   -6.6207   26.2803 N   0  0  0  0  0  0  0  0  0  0  0  0
   -1.0155   -7.1653   24.6834 C   0  0  0  0  0  0  0  0  0  0  0  0
   -1.5732   -7.9783   24.0541 O   0  0  0  0  0  0  0  0  0  0  0  0
    0.3856   -6.6439   23.7951 C   0  0  0  0  0  0  0  0  0  0  0  0
    1.6031   -5.9635   23.5255 C   0  0  0  0  0  0  0  0  0  0  0  0
    2.3813   -6.1374   21.9788 S   0  0  0  0  0  0  0  0  0  0  0  0
    1.3014   -7.3785   21.6587 C   0  0  0  0  0  0  0  0  0  0  0  0
    0.3892   -7.5545   22.5843 N   0  0  0  0  0  0  0  0  0  0  0  0
   -6.1367   -8.7087   28.8958 N   0  0  0  0  0  0  0  0  0  0  0  0
   -7.0135   -8.3161   29.9866 C   0  0  0  0  0  0  0  0  0  0  0  0
   -7.3705   -7.2316   30.3488 O   0  0  0  0  0  0  0  0  0  0  0  0
   -7.4762   -9.4810   30.8844 C   0  0  0  0  0  0  0  0  0  0  0  0
   -7.2422   -9.0909   32.3404 C   0  0  0  0  0  0  0  0  0  0  0  0
   -6.6519   -9.8013   33.2831 N   0  0  0  0  0  0  0  0  0  0  0  0
   -6.5407   -8.9683   34.3744 C   0  0  0  0  0  0  0  0  0  0  0  0
   -7.0673   -7.7330   34.1018 C   0  0  0  0  0  0  0  0  0  0  0  0
   -7.5955   -7.8594   32.8530 N   0  0  0  0  0  0  0  0  0  0  0  0
   -6.5130   -5.8447   28.5534 H   0  0  0  0  0  0  0  0  0  0  0  0
   -7.5779   -7.2038   28.1142 H   0  0  0  0  0  0  0  0  0  0  0  0
   -7.0125   -6.3697   26.8998 H   0  0  0  0  0  0  0  0  0  0  0  0
   -5.5559   -8.4793   27.1159 H   0  0  0  0  0  0  0  0  0  0  0  0
   -2.6737   -7.2146   28.2542 H   0  0  0  0  0  0  0  0  0  0  0  0
   -3.1847   -7.9044   26.4972 H   0  0  0  0  0  0  0  0  0  0  0  0
   -1.0587   -5.9844   26.7179 H   0  0  0  0  0  0  0  0  0  0  0  0
    2.3077   -5.3938   24.1089 H   0  0  0  0  0  0  0  0  0  0  0  0
    1.3253   -7.9779   20.7591 H   0  0  0  0  0  0  0  0  0  0  0  0
   -6.1245   -9.7243   28.8279 H   0  0  0  0  0  0  0  0  0  0  0  0
   -6.9544  -10.4128   30.6587 H   0  0  0  0  0  0  0  0  0  0  0  0
   -8.5464   -9.6393   30.7136 H   0  0  0  0  0  0  0  0  0  0  0  0
   -6.0738   -9.3016   35.2924 H   0  0  0  0  0  0  0  0  0  0  0  0
   -7.1480   -6.8286   34.6856 H   0  0  0  0  0  0  0  0  0  0  0  0
   -8.0098   -7.1283   32.2965 H   0  0  0  0  0  0  0  0  0  0  0  0
  1  2  1  0
  2  3  1  0
  3  4  1  0
  4  5  1  0
  5  6  2  0
  5  7  1  0
  7  8  2  0
  8  9  1  0
  9 10  1  0
 10 11  2  0
  2 12  1  0
 12 13  1  0
 13 14  2  0
 13 15  1  0
 15 16  1  0
 16 17  2  0
 17 18  1  0
 18 19  2  0
 19 20  1  0
 11  7  1  0
 20 16  1  0
  1 21  1  0
  1 22  1  0
  1 23  1  0
  2 24  1  0
  3 25  1  0
  3 26  1  0
  4 27  1  0
  8 28  1  0
 10 29  1  0
 12 30  1  0
 15 31  1  0
 15 32  1  0
 18 33  1  0
 19 34  1  0
 20 35  1  0
M  END
>  <Energy>  (1445) 
511.94912722267713

>  <compound_id>  (1445) 
8989

>  <target_id>  (1445) 
1

>  <reference_id>  (1445) 
7

>  <inspiration_ids>  (1445) 
[63, 7]

>  <energy_score>  (1445) 
400.0528196289141

>  <distance_score>  (1445) 
12.829425116506508

>  <path>  (1445) 
/opt/xchem-fragalysis-2/maxwin/BulkDock/SCRATCH/511021/C8989-P7/C8989-P7.minimised.mol

>  <scratch_subdir>  (1445) 
/opt/xchem-fragalysis-2/maxwin/BulkDock/SCRATCH/511021/C8989-P7

>  <fragmenstein_runtime>  (1445) 
15.244739294052124

>  <fragmenstein_outcome>  (1445) 
too moved

>  <fragmenstein_mode>  (1445) 
expansion

>  <fragmenstein_error>  (1445) 


$$$$
C9624-P63
     RDKit          3D

 38 39  0  0  0  0  0  0  0  0999 V2000
   -6.8305    0.7310   17.4851 C   0  0  0  0  0  0  0  0  0  0  0  0
   -5.9749   -0.3960   18.0701 C   0  0  0  0  0  0  0  0  0  0  0  0
   -6.8834   -1.5755   18.5551 C   0  0  0  0  0  0  0  0  0  0  0  0
   -7.4159   -1.4239   19.9365 N   0  0  0  0  0  0  0  0  0  0  0  0
   -8.5206   -0.6506   20.4451 C   0  0  0  0  0  0  0  0  0  0  0  0
   -9.2451    0.1308   19.8969 O   0  0  0  0  0  0  0  0  0  0  0  0
   -8.7929   -0.8510   21.9629 C   0  0  0  0  0  0  0  0  0  0  0  0
   -9.6993   -0.0064   22.6143 C   0  0  0  0  0  0  0  0  0  0  0  0
   -9.9451   -0.1652   23.9898 C   0  0  0  0  0  0  0  0  0  0  0  0
   -9.2924   -1.1697   24.6875 C   0  0  0  0  0  0  0  0  0  0  0  0
   -8.4178   -1.9738   23.9710 C   0  0  0  0  0  0  0  0  0  0  0  0
   -8.1341   -1.8403   22.6369 N   0  0  0  0  0  0  0  0  0  0  0  0
   -4.8793   -0.6954   17.1005 N   0  0  0  0  0  0  0  0  0  0  0  0
   -3.7426   -1.6089   17.1912 C   0  0  0  0  0  0  0  0  0  0  0  0
   -3.4487   -2.4071   18.0355 O   0  0  0  0  0  0  0  0  0  0  0  0
   -2.8168   -1.4708   15.9382 C   0  0  0  0  0  0  0  0  0  0  0  0
   -1.3074   -1.3782   16.1699 C   0  0  0  0  0  0  0  0  0  0  0  0
   -0.4976   -0.5138   15.5692 N   0  0  0  0  0  0  0  0  0  0  0  0
    0.7886   -0.8917   15.8789 C   0  0  0  0  0  0  0  0  0  0  0  0
    0.7765   -2.0065   16.6728 C   0  0  0  0  0  0  0  0  0  0  0  0
   -0.5520   -2.2839   16.8893 N   0  0  0  0  0  0  0  0  0  0  0  0
   -6.2054    1.5857   17.2023 H   0  0  0  0  0  0  0  0  0  0  0  0
   -7.3578    0.3973   16.5848 H   0  0  0  0  0  0  0  0  0  0  0  0
   -7.5693    1.0908   18.2047 H   0  0  0  0  0  0  0  0  0  0  0  0
   -5.4727    0.0083   18.9485 H   0  0  0  0  0  0  0  0  0  0  0  0
   -7.7420   -1.6970   17.8859 H   0  0  0  0  0  0  0  0  0  0  0  0
   -6.3181   -2.5127   18.5477 H   0  0  0  0  0  0  0  0  0  0  0  0
   -7.0810   -2.0494   20.6720 H   0  0  0  0  0  0  0  0  0  0  0  0
  -10.2115    0.7770   22.0615 H   0  0  0  0  0  0  0  0  0  0  0  0
  -10.6456    0.4949   24.4952 H   0  0  0  0  0  0  0  0  0  0  0  0
   -9.4628   -1.3265   25.7465 H   0  0  0  0  0  0  0  0  0  0  0  0
   -7.8920   -2.7853   24.4675 H   0  0  0  0  0  0  0  0  0  0  0  0
   -4.7644   -0.1025   16.2848 H   0  0  0  0  0  0  0  0  0  0  0  0
   -3.0127   -2.3475   15.3083 H   0  0  0  0  0  0  0  0  0  0  0  0
   -3.1054   -0.5921   15.3506 H   0  0  0  0  0  0  0  0  0  0  0  0
    1.6443   -0.3446   15.5066 H   0  0  0  0  0  0  0  0  0  0  0  0
    1.5604   -2.6012   17.1151 H   0  0  0  0  0  0  0  0  0  0  0  0
   -0.9126   -3.0202   17.4870 H   0  0  0  0  0  0  0  0  0  0  0  0
  1  2  1  0
  2  3  1  0
  3  4  1  0
  4  5  1  0
  5  6  2  0
  5  7  1  0
  7  8  2  0
  8  9  1  0
  9 10  2  0
 10 11  1  0
 11 12  2  0
  2 13  1  0
 13 14  1  0
 14 15  2  0
 14 16  1  0
 16 17  1  0
 17 18  2  0
 18 19  1  0
 19 20  2  0
 20 21  1  0
 12  7  1  0
 21 17  1  0
  1 22  1  0
  1 23  1  0
  1 24  1  0
  2 25  1  0
  3 26  1  0
  3 27  1  0
  4 28  1  0
  8 29  1  0
  9 30  1  0
 10 31  1  0
 11 32  1  0
 13 33  1  0
 16 34  1  0
 16 35  1  0
 19 36  1  0
 20 37  1  0
 21 38  1  0
M  END
>  <Energy>  (1446) 
68.767975925271941

>  <compound_id>  (1446) 
9624

>  <target_id>  (1446) 
1

>  <reference_id>  (1446) 
63

>  <inspiration_ids>  (1446) 
[63, 7]

>  <energy_score>  (1446) 
-19.733112780025294

>  <distance_score>  (1446) 
15.079633736557161

>  <path>  (1446) 
/opt/xchem-fragalysis-2/maxwin/BulkDock/SCRATCH/511021/C9624-P63/C9624-P63.minimised.mol

>  <scratch_subdir>  (1446) 
/opt/xchem-fragalysis-2/maxwin/BulkDock/SCRATCH/511021/C9624-P63

>  <fragmenstein_runtime>  (1446) 
14.606308698654175

>  <fragmenstein_outcome>  (1446) 
too moved

>  <fragmenstein_mode>  (1446) 
expansion

>  <fragmenstein_error>  (1446) 


$$$$
C9624-P7
     RDKit          3D

 38 39  0  0  0  0  0  0  0  0999 V2000
   -2.0816   -1.6005   29.3405 C   0  0  0  0  0  0  0  0  0  0  0  0
   -1.0709   -0.9928   30.3121 C   0  0  0  0  0  0  0  0  0  0  0  0
   -1.2646   -1.5191   31.7555 C   0  0  0  0  0  0  0  0  0  0  0  0
   -2.5112   -1.1485   32.4050 N   0  0  0  0  0  0  0  0  0  0  0  0
   -3.8274   -1.7035   32.2990 C   0  0  0  0  0  0  0  0  0  0  0  0
   -4.2575   -2.5663   31.5883 O   0  0  0  0  0  0  0  0  0  0  0  0
   -4.8044   -1.0519   33.2650 C   0  0  0  0  0  0  0  0  0  0  0  0
   -6.1698   -1.2582   33.1122 C   0  0  0  0  0  0  0  0  0  0  0  0
   -7.0411   -0.7480   34.0751 C   0  0  0  0  0  0  0  0  0  0  0  0
   -6.5322   -0.0219   35.1419 C   0  0  0  0  0  0  0  0  0  0  0  0
   -5.1596    0.1662   35.1983 C   0  0  0  0  0  0  0  0  0  0  0  0
   -4.2792   -0.3260   34.2901 N   0  0  0  0  0  0  0  0  0  0  0  0
    0.2886   -1.2264   29.8085 N   0  0  0  0  0  0  0  0  0  0  0  0
    0.9447   -0.7740   28.5888 C   0  0  0  0  0  0  0  0  0  0  0  0
    0.5648   -0.0335   27.7295 O   0  0  0  0  0  0  0  0  0  0  0  0
    2.3653   -1.4267   28.5356 C   0  0  0  0  0  0  0  0  0  0  0  0
    3.1956   -1.0003   27.3589 C   0  0  0  0  0  0  0  0  0  0  0  0
    3.2591    0.2073   26.8406 N   0  0  0  0  0  0  0  0  0  0  0  0
    3.9149    0.0439   25.6639 C   0  0  0  0  0  0  0  0  0  0  0  0
    4.4784   -1.1949   25.5633 C   0  0  0  0  0  0  0  0  0  0  0  0
    4.0411   -1.8469   26.6737 N   0  0  0  0  0  0  0  0  0  0  0  0
   -2.0257   -2.6938   29.3561 H   0  0  0  0  0  0  0  0  0  0  0  0
   -1.8925   -1.2746   28.3121 H   0  0  0  0  0  0  0  0  0  0  0  0
   -3.1032   -1.2997   29.5870 H   0  0  0  0  0  0  0  0  0  0  0  0
   -1.2094    0.0951   30.3028 H   0  0  0  0  0  0  0  0  0  0  0  0
   -0.4576   -1.1464   32.3962 H   0  0  0  0  0  0  0  0  0  0  0  0
   -1.2082   -2.6140   31.7576 H   0  0  0  0  0  0  0  0  0  0  0  0
   -2.5320   -0.3690   33.0631 H   0  0  0  0  0  0  0  0  0  0  0  0
   -6.5501   -1.8208   32.2661 H   0  0  0  0  0  0  0  0  0  0  0  0
   -8.1047   -0.9293   33.9866 H   0  0  0  0  0  0  0  0  0  0  0  0
   -7.1824    0.3886   35.9059 H   0  0  0  0  0  0  0  0  0  0  0  0
   -4.7104    0.7331   36.0103 H   0  0  0  0  0  0  0  0  0  0  0  0
    0.9383   -1.7872   30.3452 H   0  0  0  0  0  0  0  0  0  0  0  0
    2.2300   -2.5149   28.5164 H   0  0  0  0  0  0  0  0  0  0  0  0
    2.9021   -1.1556   29.4521 H   0  0  0  0  0  0  0  0  0  0  0  0
    3.8763    0.8144   24.9219 H   0  0  0  0  0  0  0  0  0  0  0  0
    5.0443   -1.6796   24.7862 H   0  0  0  0  0  0  0  0  0  0  0  0
    4.2542   -2.8108   26.8827 H   0  0  0  0  0  0  0  0  0  0  0  0
  1  2  1  0
  2  3  1  0
  3  4  1  0
  4  5  1  0
  5  6  2  0
  5  7  1  0
  7  8  2  0
  8  9  1  0
  9 10  2  0
 10 11  1  0
 11 12  2  0
  2 13  1  0
 13 14  1  0
 14 15  2  0
 14 16  1  0
 16 17  1  0
 17 18  2  0
 18 19  1  0
 19 20  2  0
 20 21  1  0
 12  7  1  0
 21 17  1  0
  1 22  1  0
  1 23  1  0
  1 24  1  0
  2 25  1  0
  3 26  1  0
  3 27  1  0
  4 28  1  0
  8 29  1  0
  9 30  1  0
 10 31  1  0
 11 32  1  0
 13 33  1  0
 16 34  1  0
 16 35  1  0
 19 36  1  0
 20 37  1  0
 21 38  1  0
M  END
>  <Energy>  (1447) 
77.052448969788472

>  <compound_id>  (1447) 
9624

>  <target_id>  (1447) 
1

>  <reference_id>  (1447) 
7

>  <inspiration_ids>  (1447) 
[63, 7]

>  <energy_score>  (1447) 
-11.448639735508493

>  <distance_score>  (1447) 
11.440552900154596

>  <path>  (1447) 
/opt/xchem-fragalysis-2/maxwin/BulkDock/SCRATCH/511021/C9624-P7/C9624-P7.minimised.mol

>  <scratch_subdir>  (1447) 
/opt/xchem-fragalysis-2/maxwin/BulkDock/SCRATCH/511021/C9624-P7

>  <fragmenstein_runtime>  (1447) 
16.347491979599

>  <fragmenstein_outcome>  (1447) 
too moved

>  <fragmenstein_mode>  (1447) 
expansion

>  <fragmenstein_error>  (1447) 


$$$$
C11894-P63
     RDKit          3D

 38 39  0  0  0  0  0  0  0  0999 V2000
    4.2271   -0.1945   27.5917 C   0  0  0  0  0  0  0  0  0  0  0  0
    3.4359   -0.9527   26.5050 C   0  0  0  0  0  0  0  0  0  0  0  0
    2.9502   -2.2829   27.1024 C   0  0  0  0  0  0  0  0  0  0  0  0
    1.7548   -2.1423   27.9969 N   0  0  0  0  0  0  0  0  0  0  0  0
    1.6578   -1.9172   29.4214 C   0  0  0  0  0  0  0  0  0  0  0  0
    2.5093   -1.8639   30.2642 O   0  0  0  0  0  0  0  0  0  0  0  0
    0.2564   -1.7670   30.0105 C   0  0  0  0  0  0  0  0  0  0  0  0
    0.0637   -0.9343   31.1330 C   0  0  0  0  0  0  0  0  0  0  0  0
   -1.1637   -0.8807   31.8119 C   0  0  0  0  0  0  0  0  0  0  0  0
   -2.1898   -1.6836   31.3630 C   0  0  0  0  0  0  0  0  0  0  0  0
   -2.0598   -2.4965   30.2946 N   0  0  0  0  0  0  0  0  0  0  0  0
   -0.8508   -2.5207   29.6464 C   0  0  0  0  0  0  0  0  0  0  0  0
    4.2274   -0.8136   25.2583 N   0  0  0  0  0  0  0  0  0  0  0  0
    4.2768   -1.7194   23.9288 C   0  0  0  0  0  0  0  0  0  0  0  0
    3.7183   -2.7514   23.7389 O   0  0  0  0  0  0  0  0  0  0  0  0
    5.2466   -1.0225   22.3381 C   0  0  0  0  0  0  0  0  0  0  0  0
    6.6642   -1.1476   20.9880 C   0  0  0  0  0  0  0  0  0  0  0  0
    7.4549   -1.7126   20.1848 N   0  0  0  0  0  0  0  0  0  0  0  0
    7.1886   -0.8074   19.1196 C   0  0  0  0  0  0  0  0  0  0  0  0
    7.3035    0.4486   19.3850 C   0  0  0  0  0  0  0  0  0  0  0  0
    7.6182    0.1751   20.6210 N   0  0  0  0  0  0  0  0  0  0  0  0
    3.6524   -0.0897   28.5158 H   0  0  0  0  0  0  0  0  0  0  0  0
    4.4855    0.8169   27.2583 H   0  0  0  0  0  0  0  0  0  0  0  0
    5.1646   -0.7124   27.8233 H   0  0  0  0  0  0  0  0  0  0  0  0
    2.5568   -0.3389   26.3337 H   0  0  0  0  0  0  0  0  0  0  0  0
    3.7445   -2.7302   27.7061 H   0  0  0  0  0  0  0  0  0  0  0  0
    2.6829   -2.9773   26.3198 H   0  0  0  0  0  0  0  0  0  0  0  0
    0.8219   -2.2045   27.6075 H   0  0  0  0  0  0  0  0  0  0  0  0
    0.8991   -0.3408   31.5032 H   0  0  0  0  0  0  0  0  0  0  0  0
   -1.2914   -0.2414   32.6781 H   0  0  0  0  0  0  0  0  0  0  0  0
   -3.1585   -1.6959   31.8521 H   0  0  0  0  0  0  0  0  0  0  0  0
   -0.8072   -3.2301   28.8244 H   0  0  0  0  0  0  0  0  0  0  0  0
    4.7231    0.0331   25.0961 H   0  0  0  0  0  0  0  0  0  0  0  0
    5.2368    0.0922   22.3954 H   0  0  0  0  0  0  0  0  0  0  0  0
    4.4360   -0.6806   21.8259 H   0  0  0  0  0  0  0  0  0  0  0  0
    6.4449   -0.9722   18.3270 H   0  0  0  0  0  0  0  0  0  0  0  0
    7.3788    1.4234   18.9157 H   0  0  0  0  0  0  0  0  0  0  0  0
    7.7588    0.9691   21.2379 H   0  0  0  0  0  0  0  0  0  0  0  0
  1  2  1  0
  2  3  1  0
  3  4  1  0
  4  5  1  0
  5  6  2  0
  5  7  1  0
  7  8  2  0
  8  9  1  0
  9 10  2  0
 10 11  1  0
 11 12  2  0
  2 13  1  0
 13 14  1  0
 14 15  2  0
 14 16  1  0
 16 17  1  0
 17 18  2  0
 18 19  1  0
 19 20  2  0
 20 21  1  0
 12  7  1  0
 21 17  1  0
  1 22  1  0
  1 23  1  0
  1 24  1  0
  2 25  1  0
  3 26  1  0
  3 27  1  0
  4 28  1  0
  8 29  1  0
  9 30  1  0
 10 31  1  0
 12 32  1  0
 13 33  1  0
 16 34  1  0
 16 35  1  0
 19 36  1  0
 20 37  1  0
 21 38  1  0
M  END
>  <Energy>  (1448) 
365.96191229646047

>  <compound_id>  (1448) 
11894

>  <target_id>  (1448) 
1

>  <reference_id>  (1448) 
63

>  <inspiration_ids>  (1448) 
[63, 7]

>  <energy_score>  (1448) 
306.61594352485866

>  <distance_score>  (1448) 
10.942299671908053

>  <path>  (1448) 
/opt/xchem-fragalysis-2/maxwin/BulkDock/SCRATCH/511021/C11894-P63/C11894-P63.minimised.mol

>  <scratch_subdir>  (1448) 
/opt/xchem-fragalysis-2/maxwin/BulkDock/SCRATCH/511021/C11894-P63

>  <fragmenstein_runtime>  (1448) 
16.400994300842285

>  <fragmenstein_outcome>  (1448) 
too moved

>  <fragmenstein_mode>  (1448) 
expansion

>  <fragmenstein_error>  (1448) 


$$$$
C11894-P7
     RDKit          3D

 38 39  0  0  0  0  0  0  0  0999 V2000
   -0.9624   -2.1841   30.3888 C   0  0  0  0  0  0  0  0  0  0  0  0
   -0.7260   -0.6771   30.3070 C   0  0  0  0  0  0  0  0  0  0  0  0
   -1.0749    0.0318   31.6431 C   0  0  0  0  0  0  0  0  0  0  0  0
   -2.4090   -0.2002   32.1930 N   0  0  0  0  0  0  0  0  0  0  0  0
   -2.8511   -0.3803   33.5507 C   0  0  0  0  0  0  0  0  0  0  0  0
   -2.2292   -0.4649   34.5695 O   0  0  0  0  0  0  0  0  0  0  0  0
   -4.3394   -0.4851   33.7384 C   0  0  0  0  0  0  0  0  0  0  0  0
   -5.2840    0.2711   33.0483 C   0  0  0  0  0  0  0  0  0  0  0  0
   -6.6500    0.0718   33.2897 C   0  0  0  0  0  0  0  0  0  0  0  0
   -7.0373   -0.8289   34.2626 C   0  0  0  0  0  0  0  0  0  0  0  0
   -6.1566   -1.5298   34.9950 N   0  0  0  0  0  0  0  0  0  0  0  0
   -4.8352   -1.3417   34.7201 C   0  0  0  0  0  0  0  0  0  0  0  0
    0.6670   -0.4312   29.8973 N   0  0  0  0  0  0  0  0  0  0  0  0
    1.2732   -0.3534   28.5751 C   0  0  0  0  0  0  0  0  0  0  0  0
    0.7767   -0.3913   27.4867 O   0  0  0  0  0  0  0  0  0  0  0  0
    2.7935   -0.1222   28.7238 C   0  0  0  0  0  0  0  0  0  0  0  0
    3.6937   -0.5342   27.5817 C   0  0  0  0  0  0  0  0  0  0  0  0
    5.0141   -0.4629   27.6416 N   0  0  0  0  0  0  0  0  0  0  0  0
    5.4728   -1.0580   26.5014 C   0  0  0  0  0  0  0  0  0  0  0  0
    4.4360   -1.3779   25.6678 C   0  0  0  0  0  0  0  0  0  0  0  0
    3.3090   -1.0968   26.3857 N   0  0  0  0  0  0  0  0  0  0  0  0
   -0.7188   -2.6687   29.4367 H   0  0  0  0  0  0  0  0  0  0  0  0
   -2.0079   -2.4107   30.6193 H   0  0  0  0  0  0  0  0  0  0  0  0
   -0.3334   -2.6403   31.1611 H   0  0  0  0  0  0  0  0  0  0  0  0
   -1.3662   -0.2790   29.5105 H   0  0  0  0  0  0  0  0  0  0  0  0
   -0.3529   -0.2536   32.4176 H   0  0  0  0  0  0  0  0  0  0  0  0
   -0.9784    1.1159   31.5129 H   0  0  0  0  0  0  0  0  0  0  0  0
   -3.2180   -0.0892   31.5943 H   0  0  0  0  0  0  0  0  0  0  0  0
   -4.9837    1.0209   32.3222 H   0  0  0  0  0  0  0  0  0  0  0  0
   -7.3970    0.6122   32.7199 H   0  0  0  0  0  0  0  0  0  0  0  0
   -8.0827   -1.0142   34.4829 H   0  0  0  0  0  0  0  0  0  0  0  0
   -4.1574   -1.9305   35.3358 H   0  0  0  0  0  0  0  0  0  0  0  0
    1.3839   -0.2817   30.6004 H   0  0  0  0  0  0  0  0  0  0  0  0
    2.9371    0.9496   28.9066 H   0  0  0  0  0  0  0  0  0  0  0  0
    3.1486   -0.6618   29.6108 H   0  0  0  0  0  0  0  0  0  0  0  0
    6.5255   -1.2504   26.3575 H   0  0  0  0  0  0  0  0  0  0  0  0
    4.3930   -1.8413   24.6945 H   0  0  0  0  0  0  0  0  0  0  0  0
    2.3625   -1.3313   26.1101 H   0  0  0  0  0  0  0  0  0  0  0  0
  1  2  1  0
  2  3  1  0
  3  4  1  0
  4  5  1  0
  5  6  2  0
  5  7  1  0
  7  8  2  0
  8  9  1  0
  9 10  2  0
 10 11  1  0
 11 12  2  0
  2 13  1  0
 13 14  1  0
 14 15  2  0
 14 16  1  0
 16 17  1  0
 17 18  2  0
 18 19  1  0
 19 20  2  0
 20 21  1  0
 12  7  1  0
 21 17  1  0
  1 22  1  0
  1 23  1  0
  1 24  1  0
  2 25  1  0
  3 26  1  0
  3 27  1  0
  4 28  1  0
  8 29  1  0
  9 30  1  0
 10 31  1  0
 12 32  1  0
 13 33  1  0
 16 34  1  0
 16 35  1  0
 19 36  1  0
 20 37  1  0
 21 38  1  0
M  END
>  <Energy>  (1449) 
45.086452839279296

>  <compound_id>  (1449) 
11894

>  <target_id>  (1449) 
1

>  <reference_id>  (1449) 
7

>  <inspiration_ids>  (1449) 
[63, 7]

>  <energy_score>  (1449) 
-14.259515932325087

>  <distance_score>  (1449) 
10.778508249917472

>  <path>  (1449) 
/opt/xchem-fragalysis-2/maxwin/BulkDock/SCRATCH/511021/C11894-P7/C11894-P7.minimised.mol

>  <scratch_subdir>  (1449) 
/opt/xchem-fragalysis-2/maxwin/BulkDock/SCRATCH/511021/C11894-P7

>  <fragmenstein_runtime>  (1449) 
21.74716806411743

>  <fragmenstein_outcome>  (1449) 
too moved

>  <fragmenstein_mode>  (1449) 
expansion

>  <fragmenstein_error>  (1449) 


$$$$
C11943-P63
     RDKit          3D

 44 45  0  0  0  0  0  0  0  0999 V2000
   14.7956   -4.7715   20.1376 C   0  0  0  0  0  0  0  0  0  0  0  0
   13.4685   -4.3229   20.7273 C   0  0  0  0  0  0  0  0  0  0  0  0
   13.6131   -3.5894   22.0181 C   0  0  0  0  0  0  0  0  0  0  0  0
   14.5007   -2.6162   22.4196 C   0  0  0  0  0  0  0  0  0  0  0  0
   14.1488   -2.0972   23.6401 N   0  0  0  0  0  0  0  0  0  0  0  0
   13.0202   -2.6921   23.9896 C   0  0  0  0  0  0  0  0  0  0  0  0
   12.2267   -2.3644   25.2369 C   0  0  0  0  0  0  0  0  0  0  0  0
   10.6815   -2.5315   25.1474 C   0  0  0  0  0  0  0  0  0  0  0  0
   10.2373   -3.5217   24.6318 O   0  0  0  0  0  0  0  0  0  0  0  0
   10.0064   -1.4128   25.7905 N   0  0  0  0  0  0  0  0  0  0  0  0
    8.5713   -1.1877   26.0982 C   0  0  0  0  0  0  0  0  0  0  0  0
    7.7151   -1.4108   24.8539 C   0  0  0  0  0  0  0  0  0  0  0  0
    8.0797   -2.0173   27.3138 C   0  0  0  0  0  0  0  0  0  0  0  0
    6.6900   -1.8316   27.7444 N   0  0  0  0  0  0  0  0  0  0  0  0
    6.1312   -1.0549   28.8150 C   0  0  0  0  0  0  0  0  0  0  0  0
    6.6501   -0.2952   29.5829 O   0  0  0  0  0  0  0  0  0  0  0  0
    4.6516   -1.2911   29.1159 C   0  0  0  0  0  0  0  0  0  0  0  0
    3.6384   -1.5054   28.1766 C   0  0  0  0  0  0  0  0  0  0  0  0
    2.3181   -1.6549   28.6205 C   0  0  0  0  0  0  0  0  0  0  0  0
    1.9403   -1.6160   29.9184 N   0  0  0  0  0  0  0  0  0  0  0  0
    2.9321   -1.3978   30.8084 C   0  0  0  0  0  0  0  0  0  0  0  0
    4.2690   -1.2320   30.4646 C   0  0  0  0  0  0  0  0  0  0  0  0
   12.7188   -3.6762   23.0693 N   0  0  0  0  0  0  0  0  0  0  0  0
   15.4662   -3.9234   19.9634 H   0  0  0  0  0  0  0  0  0  0  0  0
   15.3060   -5.4731   20.8058 H   0  0  0  0  0  0  0  0  0  0  0  0
   14.6364   -5.2667   19.1764 H   0  0  0  0  0  0  0  0  0  0  0  0
   12.8194   -5.1951   20.8570 H   0  0  0  0  0  0  0  0  0  0  0  0
   12.9875   -3.6554   20.0070 H   0  0  0  0  0  0  0  0  0  0  0  0
   15.3558   -2.2310   21.8803 H   0  0  0  0  0  0  0  0  0  0  0  0
   12.5678   -3.0183   26.0486 H   0  0  0  0  0  0  0  0  0  0  0  0
   12.4822   -1.3388   25.5255 H   0  0  0  0  0  0  0  0  0  0  0  0
   10.6946   -0.7098   26.0413 H   0  0  0  0  0  0  0  0  0  0  0  0
    8.4992   -0.1264   26.3662 H   0  0  0  0  0  0  0  0  0  0  0  0
    8.0704   -0.7874   24.0262 H   0  0  0  0  0  0  0  0  0  0  0  0
    6.6687   -1.1493   25.0405 H   0  0  0  0  0  0  0  0  0  0  0  0
    7.7517   -2.4519   24.5195 H   0  0  0  0  0  0  0  0  0  0  0  0
    8.7098   -1.7708   28.1770 H   0  0  0  0  0  0  0  0  0  0  0  0
    8.2192   -3.0859   27.1211 H   0  0  0  0  0  0  0  0  0  0  0  0
    5.9625   -2.4327   27.3540 H   0  0  0  0  0  0  0  0  0  0  0  0
    3.8515   -1.5336   27.1115 H   0  0  0  0  0  0  0  0  0  0  0  0
    1.5151   -1.8146   27.9036 H   0  0  0  0  0  0  0  0  0  0  0  0
    2.6183   -1.3508   31.8477 H   0  0  0  0  0  0  0  0  0  0  0  0
    5.0037   -1.0475   31.2435 H   0  0  0  0  0  0  0  0  0  0  0  0
   11.8887   -4.2494   23.1070 H   0  0  0  0  0  0  0  0  0  0  0  0
  1  2  1  0
  2  3  1  0
  3  4  2  0
  4  5  1  0
  5  6  2  0
  6  7  1  0
  7  8  1  0
  8  9  2  0
  8 10  1  0
 10 11  1  0
 11 12  1  0
 11 13  1  0
 13 14  1  0
 14 15  1  0
 15 16  2  0
 15 17  1  0
 17 18  2  0
 18 19  1  0
 19 20  2  0
 20 21  1  0
 21 22  2  0
  6 23  1  0
 23  3  1  0
 22 17  1  0
  1 24  1  0
  1 25  1  0
  1 26  1  0
  2 27  1  0
  2 28  1  0
  4 29  1  0
  7 30  1  0
  7 31  1  0
 10 32  1  0
 11 33  1  0
 12 34  1  0
 12 35  1  0
 12 36  1  0
 13 37  1  0
 13 38  1  0
 14 39  1  0
 18 40  1  0
 19 41  1  0
 21 42  1  0
 22 43  1  0
 23 44  1  0
M  END
>  <Energy>  (1450) 
23.416072700264607

>  <compound_id>  (1450) 
11943

>  <target_id>  (1450) 
1

>  <reference_id>  (1450) 
63

>  <inspiration_ids>  (1450) 
[63, 7]

>  <energy_score>  (1450) 
-20.576735415037092

>  <distance_score>  (1450) 
16.769176973261263

>  <path>  (1450) 
/opt/xchem-fragalysis-2/maxwin/BulkDock/SCRATCH/511021/C11943-P63/C11943-P63.minimised.mol

>  <scratch_subdir>  (1450) 
/opt/xchem-fragalysis-2/maxwin/BulkDock/SCRATCH/511021/C11943-P63

>  <fragmenstein_runtime>  (1450) 
21.25428032875061

>  <fragmenstein_outcome>  (1450) 
too moved

>  <fragmenstein_mode>  (1450) 
expansion

>  <fragmenstein_error>  (1450) 


$$$$
C11943-P7
     RDKit          3D

 44 45  0  0  0  0  0  0  0  0999 V2000
    0.1438   -1.1381   18.2183 C   0  0  0  0  0  0  0  0  0  0  0  0
    0.4032   -1.0739   19.9737 C   0  0  0  0  0  0  0  0  0  0  0  0
   -0.5396   -1.9900   21.7500 C   0  0  0  0  0  0  0  0  0  0  0  0
   -1.6193   -2.3772   22.7399 C   0  0  0  0  0  0  0  0  0  0  0  0
   -3.3175   -2.6044   22.3899 N   0  0  0  0  0  0  0  0  0  0  0  0
   -3.5061   -2.3935   23.6874 C   0  0  0  0  0  0  0  0  0  0  0  0
   -5.2419   -2.1014   24.6942 C   0  0  0  0  0  0  0  0  0  0  0  0
   -6.7646   -3.0639   25.6340 C   0  0  0  0  0  0  0  0  0  0  0  0
   -6.7990   -4.2227   25.2768 O   0  0  0  0  0  0  0  0  0  0  0  0
   -7.9703   -2.3471   26.8049 N   0  0  0  0  0  0  0  0  0  0  0  0
   -9.4869   -3.1403   27.7323 C   0  0  0  0  0  0  0  0  0  0  0  0
   -9.0727   -4.6137   27.7639 C   0  0  0  0  0  0  0  0  0  0  0  0
  -11.2094   -3.0017   28.8551 C   0  0  0  0  0  0  0  0  0  0  0  0
  -11.7183   -2.7905   30.7094 N   0  0  0  0  0  0  0  0  0  0  0  0
  -12.2191   -3.7067   31.6538 C   0  0  0  0  0  0  0  0  0  0  0  0
  -12.5499   -4.8438   31.5153 O   0  0  0  0  0  0  0  0  0  0  0  0
  -12.2036   -2.9798   33.5341 C   0  0  0  0  0  0  0  0  0  0  0  0
  -11.5582   -3.6122   34.7567 C   0  0  0  0  0  0  0  0  0  0  0  0
  -11.3132   -3.2544   36.1535 C   0  0  0  0  0  0  0  0  0  0  0  0
  -11.6369   -2.1137   36.6945 N   0  0  0  0  0  0  0  0  0  0  0  0
  -12.2645   -1.3964   35.8012 C   0  0  0  0  0  0  0  0  0  0  0  0
  -12.5151   -1.8016   34.4064 C   0  0  0  0  0  0  0  0  0  0  0  0
   -2.3125   -1.5943   22.5280 N   0  0  0  0  0  0  0  0  0  0  0  0
    0.2373   -0.1187   17.8235 H   0  0  0  0  0  0  0  0  0  0  0  0
   -0.7983   -1.5957   17.8925 H   0  0  0  0  0  0  0  0  0  0  0  0
    0.9477   -1.7154   17.7368 H   0  0  0  0  0  0  0  0  0  0  0  0
    1.1710   -1.7592   19.6143 H   0  0  0  0  0  0  0  0  0  0  0  0
    1.3618   -0.4692   19.9972 H   0  0  0  0  0  0  0  0  0  0  0  0
   -1.2089   -3.0337   23.4741 H   0  0  0  0  0  0  0  0  0  0  0  0
   -4.6123   -2.4357   25.5334 H   0  0  0  0  0  0  0  0  0  0  0  0
   -5.6262   -2.5993   23.7862 H   0  0  0  0  0  0  0  0  0  0  0  0
   -7.6968   -1.3947   27.0189 H   0  0  0  0  0  0  0  0  0  0  0  0
  -10.0867   -3.0570   26.8088 H   0  0  0  0  0  0  0  0  0  0  0  0
   -8.0737   -4.7125   28.1946 H   0  0  0  0  0  0  0  0  0  0  0  0
   -9.7883   -5.2279   28.3136 H   0  0  0  0  0  0  0  0  0  0  0  0
   -9.0168   -5.0154   26.7461 H   0  0  0  0  0  0  0  0  0  0  0  0
  -11.7622   -2.1925   28.3670 H   0  0  0  0  0  0  0  0  0  0  0  0
  -11.6979   -3.9606   28.6457 H   0  0  0  0  0  0  0  0  0  0  0  0
  -11.6276   -1.9072   31.1454 H   0  0  0  0  0  0  0  0  0  0  0  0
  -11.3567   -4.6782   34.8729 H   0  0  0  0  0  0  0  0  0  0  0  0
  -10.8827   -3.9881   36.8305 H   0  0  0  0  0  0  0  0  0  0  0  0
  -12.5523   -0.4030   36.1423 H   0  0  0  0  0  0  0  0  0  0  0  0
  -12.8171   -0.8322   34.0465 H   0  0  0  0  0  0  0  0  0  0  0  0
   -2.7392   -0.7411   22.1701 H   0  0  0  0  0  0  0  0  0  0  0  0
  1  2  1  0
  2  3  1  0
  3  4  2  0
  4  5  1  0
  5  6  2  0
  6  7  1  0
  7  8  1  0
  8  9  2  0
  8 10  1  0
 10 11  1  0
 11 12  1  0
 11 13  1  0
 13 14  1  0
 14 15  1  0
 15 16  2  0
 15 17  1  0
 17 18  2  0
 18 19  1  0
 19 20  2  0
 20 21  1  0
 21 22  2  0
  6 23  1  0
 23  3  1  0
 22 17  1  0
  1 24  1  0
  1 25  1  0
  1 26  1  0
  2 27  1  0
  2 28  1  0
  4 29  1  0
  7 30  1  0
  7 31  1  0
 10 32  1  0
 11 33  1  0
 12 34  1  0
 12 35  1  0
 12 36  1  0
 13 37  1  0
 13 38  1  0
 14 39  1  0
 18 40  1  0
 19 41  1  0
 21 42  1  0
 22 43  1  0
 23 44  1  0
M  END
>  <Energy>  (1451) 
1433.1508639182405

>  <compound_id>  (1451) 
11943

>  <target_id>  (1451) 
1

>  <reference_id>  (1451) 
7

>  <inspiration_ids>  (1451) 
[63, 7]

>  <energy_score>  (1451) 
1389.1580558029436

>  <distance_score>  (1451) 
11.498479494867903

>  <path>  (1451) 
/opt/xchem-fragalysis-2/maxwin/BulkDock/SCRATCH/511021/C11943-P7/C11943-P7.minimised.mol

>  <scratch_subdir>  (1451) 
/opt/xchem-fragalysis-2/maxwin/BulkDock/SCRATCH/511021/C11943-P7

>  <fragmenstein_runtime>  (1451) 
14.405230283737183

>  <fragmenstein_outcome>  (1451) 
too moved

>  <fragmenstein_mode>  (1451) 
expansion

>  <fragmenstein_error>  (1451) 


$$$$
C9625-P63
     RDKit          3D

 44 45  0  0  0  0  0  0  0  0999 V2000
    6.1676    0.8888   17.5910 C   0  0  0  0  0  0  0  0  0  0  0  0
    6.7073    1.5462   18.8376 C   0  0  0  0  0  0  0  0  0  0  0  0
    5.8275    2.5564   19.4750 C   0  0  0  0  0  0  0  0  0  0  0  0
    5.4301    3.8094   19.0768 C   0  0  0  0  0  0  0  0  0  0  0  0
    4.4327    4.2796   19.8941 N   0  0  0  0  0  0  0  0  0  0  0  0
    4.2185    3.3525   20.8102 C   0  0  0  0  0  0  0  0  0  0  0  0
    2.9574    3.1248   21.6278 C   0  0  0  0  0  0  0  0  0  0  0  0
    2.6597    4.0795   22.8223 C   0  0  0  0  0  0  0  0  0  0  0  0
    2.6622    5.2630   22.6324 O   0  0  0  0  0  0  0  0  0  0  0  0
    2.3184    3.3045   24.0244 N   0  0  0  0  0  0  0  0  0  0  0  0
    1.7916    3.7369   25.3408 C   0  0  0  0  0  0  0  0  0  0  0  0
    2.7738    3.4182   26.4595 C   0  0  0  0  0  0  0  0  0  0  0  0
    0.3433    3.2226   25.6286 C   0  0  0  0  0  0  0  0  0  0  0  0
    0.0797    2.3402   26.7758 N   0  0  0  0  0  0  0  0  0  0  0  0
   -0.3304    2.6440   28.1336 C   0  0  0  0  0  0  0  0  0  0  0  0
   -0.4808    3.6964   28.6860 O   0  0  0  0  0  0  0  0  0  0  0  0
   -0.7451    1.4112   28.9916 C   0  0  0  0  0  0  0  0  0  0  0  0
   -1.3054    0.2652   28.4392 C   0  0  0  0  0  0  0  0  0  0  0  0
   -1.7825   -0.7393   29.2917 C   0  0  0  0  0  0  0  0  0  0  0  0
   -1.7725   -0.5576   30.6701 C   0  0  0  0  0  0  0  0  0  0  0  0
   -1.2201    0.6096   31.1483 C   0  0  0  0  0  0  0  0  0  0  0  0
   -0.6910    1.5700   30.3500 N   0  0  0  0  0  0  0  0  0  0  0  0
    5.1980    2.3772   20.6943 N   0  0  0  0  0  0  0  0  0  0  0  0
    5.3717    0.1705   17.7797 H   0  0  0  0  0  0  0  0  0  0  0  0
    5.7500    1.6505   16.9265 H   0  0  0  0  0  0  0  0  0  0  0  0
    6.9737    0.3527   17.0827 H   0  0  0  0  0  0  0  0  0  0  0  0
    6.9609    0.7798   19.5730 H   0  0  0  0  0  0  0  0  0  0  0  0
    7.5947    2.0799   18.5018 H   0  0  0  0  0  0  0  0  0  0  0  0
    5.7433    4.3704   18.2053 H   0  0  0  0  0  0  0  0  0  0  0  0
    2.9488    2.0865   21.9543 H   0  0  0  0  0  0  0  0  0  0  0  0
    2.1001    3.2248   20.9488 H   0  0  0  0  0  0  0  0  0  0  0  0
    2.5104    2.3188   23.8519 H   0  0  0  0  0  0  0  0  0  0  0  0
    1.7278    4.8295   25.2585 H   0  0  0  0  0  0  0  0  0  0  0  0
    2.8920    2.3377   26.5908 H   0  0  0  0  0  0  0  0  0  0  0  0
    3.7609    3.8401   26.2419 H   0  0  0  0  0  0  0  0  0  0  0  0
    2.4365    3.8440   27.4101 H   0  0  0  0  0  0  0  0  0  0  0  0
   -0.2831    4.1063   25.8034 H   0  0  0  0  0  0  0  0  0  0  0  0
   -0.0672    2.7234   24.7453 H   0  0  0  0  0  0  0  0  0  0  0  0
    0.1805    1.3400   26.6780 H   0  0  0  0  0  0  0  0  0  0  0  0
   -1.4100    0.1365   27.3696 H   0  0  0  0  0  0  0  0  0  0  0  0
   -2.1801   -1.6575   28.8624 H   0  0  0  0  0  0  0  0  0  0  0  0
   -2.1605   -1.3133   31.3424 H   0  0  0  0  0  0  0  0  0  0  0  0
   -1.1607    0.8136   32.2133 H   0  0  0  0  0  0  0  0  0  0  0  0
    5.1964    1.5161   21.2306 H   0  0  0  0  0  0  0  0  0  0  0  0
  1  2  1  0
  2  3  1  0
  3  4  2  0
  4  5  1  0
  5  6  2  0
  6  7  1  0
  7  8  1  0
  8  9  2  0
  8 10  1  0
 10 11  1  0
 11 12  1  0
 11 13  1  0
 13 14  1  0
 14 15  1  0
 15 16  2  0
 15 17  1  0
 17 18  2  0
 18 19  1  0
 19 20  2  0
 20 21  1  0
 21 22  2  0
  6 23  1  0
 23  3  1  0
 22 17  1  0
  1 24  1  0
  1 25  1  0
  1 26  1  0
  2 27  1  0
  2 28  1  0
  4 29  1  0
  7 30  1  0
  7 31  1  0
 10 32  1  0
 11 33  1  0
 12 34  1  0
 12 35  1  0
 12 36  1  0
 13 37  1  0
 13 38  1  0
 14 39  1  0
 18 40  1  0
 19 41  1  0
 20 42  1  0
 21 43  1  0
 23 44  1  0
M  END
>  <Energy>  (1452) 
105.9699127585276

>  <compound_id>  (1452) 
9625

>  <target_id>  (1452) 
1

>  <reference_id>  (1452) 
63

>  <inspiration_ids>  (1452) 
[63, 7]

>  <energy_score>  (1452) 
27.218664550763037

>  <distance_score>  (1452) 
13.19678957204118

>  <path>  (1452) 
/opt/xchem-fragalysis-2/maxwin/BulkDock/SCRATCH/511021/C9625-P63/C9625-P63.minimised.mol

>  <scratch_subdir>  (1452) 
/opt/xchem-fragalysis-2/maxwin/BulkDock/SCRATCH/511021/C9625-P63

>  <fragmenstein_runtime>  (1452) 
20.897359609603882

>  <fragmenstein_outcome>  (1452) 
too moved

>  <fragmenstein_mode>  (1452) 
expansion

>  <fragmenstein_error>  (1452) 


$$$$
C9625-P7
     RDKit          3D

 44 45  0  0  0  0  0  0  0  0999 V2000
    7.6235    2.9180   21.4655 C   0  0  0  0  0  0  0  0  0  0  0  0
    6.6679    1.9901   20.7175 C   0  0  0  0  0  0  0  0  0  0  0  0
    5.3479    2.6555   20.6411 C   0  0  0  0  0  0  0  0  0  0  0  0
    4.8320    3.5922   19.7829 C   0  0  0  0  0  0  0  0  0  0  0  0
    3.6312    4.0559   20.2570 N   0  0  0  0  0  0  0  0  0  0  0  0
    3.4087    3.4334   21.4077 C   0  0  0  0  0  0  0  0  0  0  0  0
    2.2074    3.6448   22.3063 C   0  0  0  0  0  0  0  0  0  0  0  0
    2.4203    3.6155   23.8620 C   0  0  0  0  0  0  0  0  0  0  0  0
    3.4683    3.9473   24.3389 O   0  0  0  0  0  0  0  0  0  0  0  0
    1.1542    3.2369   24.5053 N   0  0  0  0  0  0  0  0  0  0  0  0
    0.7484    3.2419   25.9356 C   0  0  0  0  0  0  0  0  0  0  0  0
    0.7548    4.6745   26.4656 C   0  0  0  0  0  0  0  0  0  0  0  0
    1.5134    2.2765   26.9106 C   0  0  0  0  0  0  0  0  0  0  0  0
    0.5583    1.5653   27.9908 N   0  0  0  0  0  0  0  0  0  0  0  0
    0.2093    1.6301   29.0268 C   0  0  0  0  0  0  0  0  0  0  0  0
    0.8674    3.0134   29.5282 O   0  0  0  0  0  0  0  0  0  0  0  0
   -0.6007    0.8586   30.0102 C   0  0  0  0  0  0  0  0  0  0  0  0
   -0.7027    1.2958   31.3353 C   0  0  0  0  0  0  0  0  0  0  0  0
   -1.5317    0.6161   32.2385 C   0  0  0  0  0  0  0  0  0  0  0  0
   -2.1940   -0.5246   31.8163 C   0  0  0  0  0  0  0  0  0  0  0  0
   -1.9873   -0.9311   30.5065 C   0  0  0  0  0  0  0  0  0  0  0  0
   -1.2474   -0.2555   29.5851 N   0  0  0  0  0  0  0  0  0  0  0  0
    4.3652    2.4644   21.5889 N   0  0  0  0  0  0  0  0  0  0  0  0
    8.1597    3.5611   20.7626 H   0  0  0  0  0  0  0  0  0  0  0  0
    7.1031    3.5989   22.1487 H   0  0  0  0  0  0  0  0  0  0  0  0
    8.3336    2.3683   22.0852 H   0  0  0  0  0  0  0  0  0  0  0  0
    7.0210    1.7880   19.7038 H   0  0  0  0  0  0  0  0  0  0  0  0
    6.5866    1.0310   21.2401 H   0  0  0  0  0  0  0  0  0  0  0  0
    5.2790    4.0020   18.8871 H   0  0  0  0  0  0  0  0  0  0  0  0
    1.4480    2.9206   22.0046 H   0  0  0  0  0  0  0  0  0  0  0  0
    1.7937    4.6377   22.0857 H   0  0  0  0  0  0  0  0  0  0  0  0
    0.4495    3.0955   23.7925 H   0  0  0  0  0  0  0  0  0  0  0  0
   -0.2960    2.9062   25.9035 H   0  0  0  0  0  0  0  0  0  0  0  0
    0.3269    4.7247   27.4713 H   0  0  0  0  0  0  0  0  0  0  0  0
    0.1642    5.3311   25.8172 H   0  0  0  0  0  0  0  0  0  0  0  0
    1.7721    5.0785   26.5044 H   0  0  0  0  0  0  0  0  0  0  0  0
    2.1234    1.5329   26.3665 H   0  0  0  0  0  0  0  0  0  0  0  0
    2.2335    2.8551   27.5032 H   0  0  0  0  0  0  0  0  0  0  0  0
    0.6875    1.1216   27.1143 H   0  0  0  0  0  0  0  0  0  0  0  0
   -0.1546    2.1786   31.6560 H   0  0  0  0  0  0  0  0  0  0  0  0
   -1.6218    0.9650   33.2631 H   0  0  0  0  0  0  0  0  0  0  0  0
   -2.8093   -1.1079   32.4908 H   0  0  0  0  0  0  0  0  0  0  0  0
   -2.4074   -1.8650   30.1421 H   0  0  0  0  0  0  0  0  0  0  0  0
    4.4293    1.8374   22.3918 H   0  0  0  0  0  0  0  0  0  0  0  0
  1  2  1  0
  2  3  1  0
  3  4  2  0
  4  5  1  0
  5  6  2  0
  6  7  1  0
  7  8  1  0
  8  9  2  0
  8 10  1  0
 10 11  1  0
 11 12  1  0
 11 13  1  0
 13 14  1  0
 14 15  1  0
 15 16  2  0
 15 17  1  0
 17 18  2  0
 18 19  1  0
 19 20  2  0
 20 21  1  0
 21 22  2  0
  6 23  1  0
 23  3  1  0
 22 17  1  0
  1 24  1  0
  1 25  1  0
  1 26  1  0
  2 27  1  0
  2 28  1  0
  4 29  1  0
  7 30  1  0
  7 31  1  0
 10 32  1  0
 11 33  1  0
 12 34  1  0
 12 35  1  0
 12 36  1  0
 13 37  1  0
 13 38  1  0
 14 39  1  0
 18 40  1  0
 19 41  1  0
 20 42  1  0
 21 43  1  0
 23 44  1  0
M  END
>  <Energy>  (1453) 
285.44667873337659

>  <compound_id>  (1453) 
9625

>  <target_id>  (1453) 
1

>  <reference_id>  (1453) 
7

>  <inspiration_ids>  (1453) 
[63, 7]

>  <energy_score>  (1453) 
206.69543052561738

>  <distance_score>  (1453) 
13.065772448400015

>  <path>  (1453) 
/opt/xchem-fragalysis-2/maxwin/BulkDock/SCRATCH/511021/C9625-P7/C9625-P7.minimised.mol

>  <scratch_subdir>  (1453) 
/opt/xchem-fragalysis-2/maxwin/BulkDock/SCRATCH/511021/C9625-P7

>  <fragmenstein_runtime>  (1453) 
19.220142126083374

>  <fragmenstein_outcome>  (1453) 
too moved

>  <fragmenstein_mode>  (1453) 
expansion

>  <fragmenstein_error>  (1453) 


$$$$
C11895-P63
     RDKit          3D

 44 45  0  0  0  0  0  0  0  0999 V2000
    8.7270   -0.4970   15.9659 C   0  0  0  0  0  0  0  0  0  0  0  0
    8.6120    0.4001   17.2051 C   0  0  0  0  0  0  0  0  0  0  0  0
    7.9358   -0.2843   18.4944 C   0  0  0  0  0  0  0  0  0  0  0  0
    6.7261   -0.6261   18.7088 C   0  0  0  0  0  0  0  0  0  0  0  0
    6.7645   -0.1533   19.9215 N   0  0  0  0  0  0  0  0  0  0  0  0
    6.8498   -1.2127   20.7745 C   0  0  0  0  0  0  0  0  0  0  0  0
    5.4292   -1.4341   22.2028 C   0  0  0  0  0  0  0  0  0  0  0  0
    4.8530   -1.9651   24.0625 C   0  0  0  0  0  0  0  0  0  0  0  0
    5.8067   -2.1451   24.7568 O   0  0  0  0  0  0  0  0  0  0  0  0
    3.3610   -1.9868   24.4653 N   0  0  0  0  0  0  0  0  0  0  0  0
    2.5760   -2.1557   26.0535 C   0  0  0  0  0  0  0  0  0  0  0  0
    0.6458   -2.5091   26.1158 C   0  0  0  0  0  0  0  0  0  0  0  0
    2.8288   -0.9957   27.0868 C   0  0  0  0  0  0  0  0  0  0  0  0
    1.8677   -1.0124   28.2403 N   0  0  0  0  0  0  0  0  0  0  0  0
    0.7260   -0.1623   28.5426 C   0  0  0  0  0  0  0  0  0  0  0  0
    0.3124    0.8179   27.9868 O   0  0  0  0  0  0  0  0  0  0  0  0
   -0.1921   -0.6146   29.6935 C   0  0  0  0  0  0  0  0  0  0  0  0
   -0.3317   -1.9234   30.1677 C   0  0  0  0  0  0  0  0  0  0  0  0
   -1.3056   -2.2409   31.1381 C   0  0  0  0  0  0  0  0  0  0  0  0
   -2.1403   -1.2440   31.6143 C   0  0  0  0  0  0  0  0  0  0  0  0
   -2.0655    0.0271   31.1830 N   0  0  0  0  0  0  0  0  0  0  0  0
   -1.1106    0.3002   30.2362 C   0  0  0  0  0  0  0  0  0  0  0  0
    8.0045   -0.4089   20.2419 N   0  0  0  0  0  0  0  0  0  0  0  0
    9.4988   -1.2619   16.0675 H   0  0  0  0  0  0  0  0  0  0  0  0
    7.7799   -0.9845   15.7211 H   0  0  0  0  0  0  0  0  0  0  0  0
    9.0257    0.1102   15.1054 H   0  0  0  0  0  0  0  0  0  0  0  0
    8.0825    1.3134   16.9217 H   0  0  0  0  0  0  0  0  0  0  0  0
    9.5961    0.8040   17.3624 H   0  0  0  0  0  0  0  0  0  0  0  0
    5.9317   -0.9910   18.0547 H   0  0  0  0  0  0  0  0  0  0  0  0
    5.4012   -2.4352   21.7678 H   0  0  0  0  0  0  0  0  0  0  0  0
    4.9065   -0.5069   22.0141 H   0  0  0  0  0  0  0  0  0  0  0  0
    2.8049   -1.8840   23.6500 H   0  0  0  0  0  0  0  0  0  0  0  0
    3.0332   -3.0517   26.4570 H   0  0  0  0  0  0  0  0  0  0  0  0
   -0.0469   -2.8465   24.2787 H   0  0  0  0  0  0  0  0  0  0  0  0
    0.2382   -1.6567   26.7393 H   0  0  0  0  0  0  0  0  0  0  0  0
    0.6507   -3.3103   26.9379 H   0  0  0  0  0  0  0  0  0  0  0  0
    3.8385   -1.0823   27.4997 H   0  0  0  0  0  0  0  0  0  0  0  0
    2.7417   -0.0221   26.5997 H   0  0  0  0  0  0  0  0  0  0  0  0
    1.8697   -1.7985   28.8722 H   0  0  0  0  0  0  0  0  0  0  0  0
    0.2728   -2.7315   29.7690 H   0  0  0  0  0  0  0  0  0  0  0  0
   -1.4082   -3.2584   31.5002 H   0  0  0  0  0  0  0  0  0  0  0  0
   -2.9039   -1.4448   32.3587 H   0  0  0  0  0  0  0  0  0  0  0  0
   -1.1125    1.3343   29.8965 H   0  0  0  0  0  0  0  0  0  0  0  0
    7.9191    0.5025   20.6463 H   0  0  0  0  0  0  0  0  0  0  0  0
  1  2  1  0
  2  3  1  0
  3  4  2  0
  4  5  1  0
  5  6  2  0
  6  7  1  0
  7  8  1  0
  8  9  2  0
  8 10  1  0
 10 11  1  0
 11 12  1  0
 11 13  1  0
 13 14  1  0
 14 15  1  0
 15 16  2  0
 15 17  1  0
 17 18  2  0
 18 19  1  0
 19 20  2  0
 20 21  1  0
 21 22  2  0
  6 23  1  0
 23  3  1  0
 22 17  1  0
  1 24  1  0
  1 25  1  0
  1 26  1  0
  2 27  1  0
  2 28  1  0
  4 29  1  0
  7 30  1  0
  7 31  1  0
 10 32  1  0
 11 33  1  0
 12 34  1  0
 12 35  1  0
 12 36  1  0
 13 37  1  0
 13 38  1  0
 14 39  1  0
 18 40  1  0
 19 41  1  0
 20 42  1  0
 22 43  1  0
 23 44  1  0
M  END
>  <Energy>  (1454) 
872.65935389347317

>  <compound_id>  (1454) 
11895

>  <target_id>  (1454) 
1

>  <reference_id>  (1454) 
63

>  <inspiration_ids>  (1454) 
[63, 7]

>  <energy_score>  (1454) 
813.1374852824515

>  <distance_score>  (1454) 
10.373165073741786

>  <path>  (1454) 
/opt/xchem-fragalysis-2/maxwin/BulkDock/SCRATCH/511021/C11895-P63/C11895-P63.minimised.mol

>  <scratch_subdir>  (1454) 
/opt/xchem-fragalysis-2/maxwin/BulkDock/SCRATCH/511021/C11895-P63

>  <fragmenstein_runtime>  (1454) 
15.475005149841309

>  <fragmenstein_outcome>  (1454) 
too moved

>  <fragmenstein_mode>  (1454) 
expansion

>  <fragmenstein_error>  (1454) 


$$$$
C11895-P7
     RDKit          3D

 44 45  0  0  0  0  0  0  0  0999 V2000
    8.7283    2.3831   17.0056 C   0  0  0  0  0  0  0  0  0  0  0  0
    7.7902    2.6675   18.1970 C   0  0  0  0  0  0  0  0  0  0  0  0
    7.4580    1.4148   19.0346 C   0  0  0  0  0  0  0  0  0  0  0  0
    7.4234    0.0119   18.6911 C   0  0  0  0  0  0  0  0  0  0  0  0
    7.4954   -0.8724   19.7669 N   0  0  0  0  0  0  0  0  0  0  0  0
    6.6885   -0.4213   20.7319 C   0  0  0  0  0  0  0  0  0  0  0  0
    5.3822   -1.4273   21.9434 C   0  0  0  0  0  0  0  0  0  0  0  0
    4.8348   -1.6079   23.9125 C   0  0  0  0  0  0  0  0  0  0  0  0
    5.6644   -1.2154   24.6662 O   0  0  0  0  0  0  0  0  0  0  0  0
    3.3192   -2.1408   24.3870 N   0  0  0  0  0  0  0  0  0  0  0  0
    2.4986   -2.1607   26.0263 C   0  0  0  0  0  0  0  0  0  0  0  0
    0.5522   -2.5616   26.1794 C   0  0  0  0  0  0  0  0  0  0  0  0
    2.8051   -0.9753   27.0059 C   0  0  0  0  0  0  0  0  0  0  0  0
    1.7760   -0.8175   28.0880 N   0  0  0  0  0  0  0  0  0  0  0  0
    1.3988   -1.6978   29.1777 C   0  0  0  0  0  0  0  0  0  0  0  0
    1.8690   -2.7410   29.5384 O   0  0  0  0  0  0  0  0  0  0  0  0
    0.1269   -1.3153   29.9572 C   0  0  0  0  0  0  0  0  0  0  0  0
   -0.6297   -2.3337   30.5782 C   0  0  0  0  0  0  0  0  0  0  0  0
   -1.7891   -2.0528   31.3182 C   0  0  0  0  0  0  0  0  0  0  0  0
   -2.1857   -0.7366   31.4279 C   0  0  0  0  0  0  0  0  0  0  0  0
   -1.5052    0.2805   30.8569 N   0  0  0  0  0  0  0  0  0  0  0  0
   -0.3705   -0.0325   30.1487 C   0  0  0  0  0  0  0  0  0  0  0  0
    7.4894    1.0805   20.6282 N   0  0  0  0  0  0  0  0  0  0  0  0
    8.8865    3.3104   16.4441 H   0  0  0  0  0  0  0  0  0  0  0  0
    9.7113    2.0082   17.2885 H   0  0  0  0  0  0  0  0  0  0  0  0
    8.2884    1.6571   16.3165 H   0  0  0  0  0  0  0  0  0  0  0  0
    6.8883    3.0903   17.7402 H   0  0  0  0  0  0  0  0  0  0  0  0
    8.1697    3.4751   18.8326 H   0  0  0  0  0  0  0  0  0  0  0  0
    7.7565   -0.1688   17.6729 H   0  0  0  0  0  0  0  0  0  0  0  0
    5.4911   -2.4136   21.4632 H   0  0  0  0  0  0  0  0  0  0  0  0
    4.7064   -0.5684   21.8434 H   0  0  0  0  0  0  0  0  0  0  0  0
    2.8337   -2.4981   23.5786 H   0  0  0  0  0  0  0  0  0  0  0  0
    2.9557   -3.0383   26.4686 H   0  0  0  0  0  0  0  0  0  0  0  0
   -0.1251   -2.9314   24.3489 H   0  0  0  0  0  0  0  0  0  0  0  0
    0.5964   -3.3603   26.9979 H   0  0  0  0  0  0  0  0  0  0  0  0
    0.1445   -1.6985   26.7958 H   0  0  0  0  0  0  0  0  0  0  0  0
    3.7693   -1.1498   27.4942 H   0  0  0  0  0  0  0  0  0  0  0  0
    2.8595   -0.0257   26.4685 H   0  0  0  0  0  0  0  0  0  0  0  0
    1.1063   -0.0651   28.0252 H   0  0  0  0  0  0  0  0  0  0  0  0
   -0.3040   -3.3689   30.4841 H   0  0  0  0  0  0  0  0  0  0  0  0
   -2.3530   -2.8472   31.7919 H   0  0  0  0  0  0  0  0  0  0  0  0
   -3.0726   -0.4526   31.9854 H   0  0  0  0  0  0  0  0  0  0  0  0
    0.1459    0.8374   29.7535 H   0  0  0  0  0  0  0  0  0  0  0  0
    7.2766    1.8369   21.2450 H   0  0  0  0  0  0  0  0  0  0  0  0
  1  2  1  0
  2  3  1  0
  3  4  2  0
  4  5  1  0
  5  6  2  0
  6  7  1  0
  7  8  1  0
  8  9  2  0
  8 10  1  0
 10 11  1  0
 11 12  1  0
 11 13  1  0
 13 14  1  0
 14 15  1  0
 15 16  2  0
 15 17  1  0
 17 18  2  0
 18 19  1  0
 19 20  2  0
 20 21  1  0
 21 22  2  0
  6 23  1  0
 23  3  1  0
 22 17  1  0
  1 24  1  0
  1 25  1  0
  1 26  1  0
  2 27  1  0
  2 28  1  0
  4 29  1  0
  7 30  1  0
  7 31  1  0
 10 32  1  0
 11 33  1  0
 12 34  1  0
 12 35  1  0
 12 36  1  0
 13 37  1  0
 13 38  1  0
 14 39  1  0
 18 40  1  0
 19 41  1  0
 20 42  1  0
 22 43  1  0
 23 44  1  0
M  END
>  <Energy>  (1455) 
740.96379939918847

>  <compound_id>  (1455) 
11895

>  <target_id>  (1455) 
1

>  <reference_id>  (1455) 
7

>  <inspiration_ids>  (1455) 
[63, 7]

>  <energy_score>  (1455) 
681.4419307881722

>  <distance_score>  (1455) 
10.780022529537126

>  <path>  (1455) 
/opt/xchem-fragalysis-2/maxwin/BulkDock/SCRATCH/511021/C11895-P7/C11895-P7.minimised.mol

>  <scratch_subdir>  (1455) 
/opt/xchem-fragalysis-2/maxwin/BulkDock/SCRATCH/511021/C11895-P7

>  <fragmenstein_runtime>  (1455) 
10.086138725280762

>  <fragmenstein_outcome>  (1455) 
too moved

>  <fragmenstein_mode>  (1455) 
expansion

>  <fragmenstein_error>  (1455) 


$$$$
C8990-P63
     RDKit          3D

 41 42  0  0  0  0  0  0  0  0999 V2000
   -4.2144   -9.0624   38.0751 C   0  0  0  0  0  0  0  0  0  0  0  0
   -4.9831   -7.9754   37.3335 C   0  0  0  0  0  0  0  0  0  0  0  0
   -4.6363   -7.8585   35.8862 C   0  0  0  0  0  0  0  0  0  0  0  0
   -5.1170   -7.0104   34.9169 C   0  0  0  0  0  0  0  0  0  0  0  0
   -4.4140   -7.1650   33.7492 N   0  0  0  0  0  0  0  0  0  0  0  0
   -3.5511   -8.1501   33.9508 C   0  0  0  0  0  0  0  0  0  0  0  0
   -2.3862   -8.5362   33.0545 C   0  0  0  0  0  0  0  0  0  0  0  0
   -2.3161  -10.0046   32.5376 C   0  0  0  0  0  0  0  0  0  0  0  0
   -3.0842  -10.8375   32.9261 O   0  0  0  0  0  0  0  0  0  0  0  0
   -1.2053  -10.0999   31.5794 N   0  0  0  0  0  0  0  0  0  0  0  0
   -0.7430  -11.2462   30.7095 C   0  0  0  0  0  0  0  0  0  0  0  0
   -0.1856  -12.3763   31.5628 C   0  0  0  0  0  0  0  0  0  0  0  0
    0.3255  -10.6757   29.7377 C   0  0  0  0  0  0  0  0  0  0  0  0
    1.2016  -11.3626   28.7961 N   0  0  0  0  0  0  0  0  0  0  0  0
    2.6078  -11.6660   28.8645 C   0  0  0  0  0  0  0  0  0  0  0  0
    3.3999  -11.5041   29.7487 O   0  0  0  0  0  0  0  0  0  0  0  0
    3.1711  -12.1763   27.5633 C   0  0  0  0  0  0  0  0  0  0  0  0
    4.5433  -12.2976   27.3359 C   0  0  0  0  0  0  0  0  0  0  0  0
    4.8808  -12.7998   25.7292 S   0  0  0  0  0  0  0  0  0  0  0  0
    3.1927  -12.8000   25.4234 C   0  0  0  0  0  0  0  0  0  0  0  0
    2.4116  -12.3885   26.4086 N   0  0  0  0  0  0  0  0  0  0  0  0
   -3.7211   -8.6451   35.2238 N   0  0  0  0  0  0  0  0  0  0  0  0
   -3.1345   -8.8834   38.0389 H   0  0  0  0  0  0  0  0  0  0  0  0
   -4.4121  -10.0519   37.6491 H   0  0  0  0  0  0  0  0  0  0  0  0
   -4.5158   -9.0841   39.1276 H   0  0  0  0  0  0  0  0  0  0  0  0
   -4.7661   -7.0217   37.8261 H   0  0  0  0  0  0  0  0  0  0  0  0
   -6.0474   -8.1965   37.4366 H   0  0  0  0  0  0  0  0  0  0  0  0
   -5.9065   -6.2769   35.0096 H   0  0  0  0  0  0  0  0  0  0  0  0
   -2.4078   -7.8773   32.1780 H   0  0  0  0  0  0  0  0  0  0  0  0
   -1.4555   -8.3345   33.5998 H   0  0  0  0  0  0  0  0  0  0  0  0
   -0.7109   -9.2091   31.5514 H   0  0  0  0  0  0  0  0  0  0  0  0
   -1.6147  -11.6095   30.1564 H   0  0  0  0  0  0  0  0  0  0  0  0
   -0.9462  -12.7538   32.2542 H   0  0  0  0  0  0  0  0  0  0  0  0
    0.6664  -12.0421   32.1631 H   0  0  0  0  0  0  0  0  0  0  0  0
    0.1447  -13.2106   30.9358 H   0  0  0  0  0  0  0  0  0  0  0  0
    1.0288  -10.1941   30.4104 H   0  0  0  0  0  0  0  0  0  0  0  0
   -0.1511   -9.8853   29.1467 H   0  0  0  0  0  0  0  0  0  0  0  0
    0.8658  -11.5603   27.8571 H   0  0  0  0  0  0  0  0  0  0  0  0
    5.3450  -12.1301   28.0421 H   0  0  0  0  0  0  0  0  0  0  0  0
    2.7963  -13.0928   24.4587 H   0  0  0  0  0  0  0  0  0  0  0  0
   -3.1896   -9.4068   35.6215 H   0  0  0  0  0  0  0  0  0  0  0  0
  1  2  1  0
  2  3  1  0
  3  4  2  0
  4  5  1  0
  5  6  2  0
  6  7  1  0
  7  8  1  0
  8  9  2  0
  8 10  1  0
 10 11  1  0
 11 12  1  0
 11 13  1  0
 13 14  1  0
 14 15  1  0
 15 16  2  0
 15 17  1  0
 17 18  2  0
 18 19  1  0
 19 20  1  0
 20 21  2  0
  6 22  1  0
 22  3  1  0
 21 17  1  0
  1 23  1  0
  1 24  1  0
  1 25  1  0
  2 26  1  0
  2 27  1  0
  4 28  1  0
  7 29  1  0
  7 30  1  0
 10 31  1  0
 11 32  1  0
 12 33  1  0
 12 34  1  0
 12 35  1  0
 13 36  1  0
 13 37  1  0
 14 38  1  0
 18 39  1  0
 20 40  1  0
 22 41  1  0
M  END
>  <Energy>  (1456) 
49.621268876918847

>  <compound_id>  (1456) 
8990

>  <target_id>  (1456) 
1

>  <reference_id>  (1456) 
63

>  <inspiration_ids>  (1456) 
[63, 7]

>  <energy_score>  (1456) 
-57.767173050983956

>  <distance_score>  (1456) 
14.969349291192614

>  <path>  (1456) 
/opt/xchem-fragalysis-2/maxwin/BulkDock/SCRATCH/511021/C8990-P63/C8990-P63.minimised.mol

>  <scratch_subdir>  (1456) 
/opt/xchem-fragalysis-2/maxwin/BulkDock/SCRATCH/511021/C8990-P63

>  <fragmenstein_runtime>  (1456) 
12.389936447143555

>  <fragmenstein_outcome>  (1456) 
too moved

>  <fragmenstein_mode>  (1456) 
expansion

>  <fragmenstein_error>  (1456) 


$$$$
C8990-P7
     RDKit          3D

 41 42  0  0  0  0  0  0  0  0999 V2000
   -6.4644    0.4285   31.0049 C   0  0  0  0  0  0  0  0  0  0  0  0
   -6.0941    0.0370   32.4321 C   0  0  0  0  0  0  0  0  0  0  0  0
   -4.9346   -0.9062   32.4374 C   0  0  0  0  0  0  0  0  0  0  0  0
   -4.7221   -2.0878   33.1067 C   0  0  0  0  0  0  0  0  0  0  0  0
   -3.5505   -2.6812   32.7024 N   0  0  0  0  0  0  0  0  0  0  0  0
   -2.9844   -1.8397   31.8486 C   0  0  0  0  0  0  0  0  0  0  0  0
   -1.6611   -2.0910   31.1433 C   0  0  0  0  0  0  0  0  0  0  0  0
   -1.0791   -0.9674   30.2488 C   0  0  0  0  0  0  0  0  0  0  0  0
   -1.5990    0.1140   30.2102 O   0  0  0  0  0  0  0  0  0  0  0  0
    0.0965   -1.4894   29.5406 N   0  0  0  0  0  0  0  0  0  0  0  0
    1.0690   -0.8157   28.6296 C   0  0  0  0  0  0  0  0  0  0  0  0
    0.3541    0.1380   27.6803 C   0  0  0  0  0  0  0  0  0  0  0  0
    1.9455   -1.8793   27.8810 C   0  0  0  0  0  0  0  0  0  0  0  0
    2.8211   -1.4774   26.7785 N   0  0  0  0  0  0  0  0  0  0  0  0
    4.2278   -1.1919   26.7487 C   0  0  0  0  0  0  0  0  0  0  0  0
    5.0307   -1.1319   27.6338 O   0  0  0  0  0  0  0  0  0  0  0  0
    4.7430   -1.0262   25.3375 C   0  0  0  0  0  0  0  0  0  0  0  0
    6.0932   -0.9151   25.0101 C   0  0  0  0  0  0  0  0  0  0  0  0
    6.3229   -0.7780   23.3097 S   0  0  0  0  0  0  0  0  0  0  0  0
    4.6241   -0.8787   23.1093 C   0  0  0  0  0  0  0  0  0  0  0  0
    3.9127   -0.9961   24.2127 N   0  0  0  0  0  0  0  0  0  0  0  0
   -3.7884   -0.7305   31.6892 N   0  0  0  0  0  0  0  0  0  0  0  0
   -5.6960    1.0698   30.5594 H   0  0  0  0  0  0  0  0  0  0  0  0
   -7.4072    0.9779   30.9812 H   0  0  0  0  0  0  0  0  0  0  0  0
   -6.5730   -0.4526   30.3635 H   0  0  0  0  0  0  0  0  0  0  0  0
   -6.9571   -0.4408   32.9102 H   0  0  0  0  0  0  0  0  0  0  0  0
   -5.8421    0.9269   33.0179 H   0  0  0  0  0  0  0  0  0  0  0  0
   -5.3620   -2.5593   33.8371 H   0  0  0  0  0  0  0  0  0  0  0  0
   -0.9106   -2.3174   31.9106 H   0  0  0  0  0  0  0  0  0  0  0  0
   -1.7895   -2.9843   30.5209 H   0  0  0  0  0  0  0  0  0  0  0  0
    0.2019   -2.4759   29.7534 H   0  0  0  0  0  0  0  0  0  0  0  0
    1.7276   -0.2215   29.2741 H   0  0  0  0  0  0  0  0  0  0  0  0
   -0.0738    0.9814   28.2328 H   0  0  0  0  0  0  0  0  0  0  0  0
    1.0374    0.5572   26.9358 H   0  0  0  0  0  0  0  0  0  0  0  0
   -0.4734   -0.3569   27.1675 H   0  0  0  0  0  0  0  0  0  0  0  0
    1.2910   -2.6605   27.4838 H   0  0  0  0  0  0  0  0  0  0  0  0
    2.5851   -2.3697   28.6254 H   0  0  0  0  0  0  0  0  0  0  0  0
    2.4697   -1.5262   25.8150 H   0  0  0  0  0  0  0  0  0  0  0  0
    6.9340   -0.9129   25.6903 H   0  0  0  0  0  0  0  0  0  0  0  0
    4.1607   -0.8556   22.1309 H   0  0  0  0  0  0  0  0  0  0  0  0
   -3.5629    0.0546   31.0862 H   0  0  0  0  0  0  0  0  0  0  0  0
  1  2  1  0
  2  3  1  0
  3  4  2  0
  4  5  1  0
  5  6  2  0
  6  7  1  0
  7  8  1  0
  8  9  2  0
  8 10  1  0
 10 11  1  0
 11 12  1  0
 11 13  1  0
 13 14  1  0
 14 15  1  0
 15 16  2  0
 15 17  1  0
 17 18  2  0
 18 19  1  0
 19 20  1  0
 20 21  2  0
  6 22  1  0
 22  3  1  0
 21 17  1  0
  1 23  1  0
  1 24  1  0
  1 25  1  0
  2 26  1  0
  2 27  1  0
  4 28  1  0
  7 29  1  0
  7 30  1  0
 10 31  1  0
 11 32  1  0
 12 33  1  0
 12 34  1  0
 12 35  1  0
 13 36  1  0
 13 37  1  0
 14 38  1  0
 18 39  1  0
 20 40  1  0
 22 41  1  0
M  END
>  <Energy>  (1457) 
36.812284205566186

>  <compound_id>  (1457) 
8990

>  <target_id>  (1457) 
1

>  <reference_id>  (1457) 
7

>  <inspiration_ids>  (1457) 
[63, 7]

>  <energy_score>  (1457) 
-70.57615772233567

>  <distance_score>  (1457) 
12.238067750186044

>  <path>  (1457) 
/opt/xchem-fragalysis-2/maxwin/BulkDock/SCRATCH/511021/C8990-P7/C8990-P7.minimised.mol

>  <scratch_subdir>  (1457) 
/opt/xchem-fragalysis-2/maxwin/BulkDock/SCRATCH/511021/C8990-P7

>  <fragmenstein_runtime>  (1457) 
25.060349225997925

>  <fragmenstein_outcome>  (1457) 
too moved

>  <fragmenstein_mode>  (1457) 
expansion

>  <fragmenstein_error>  (1457) 


$$$$
C7727-P63
     RDKit          3D

 41 42  0  0  0  0  0  0  0  0999 V2000
   -7.3208   -0.3413   34.9897 C   0  0  0  0  0  0  0  0  0  0  0  0
   -5.8146   -0.3486   34.8223 C   0  0  0  0  0  0  0  0  0  0  0  0
   -5.3458   -0.8214   33.4821 C   0  0  0  0  0  0  0  0  0  0  0  0
   -5.9547   -1.4812   32.4375 C   0  0  0  0  0  0  0  0  0  0  0  0
   -5.0824   -1.6643   31.3866 N   0  0  0  0  0  0  0  0  0  0  0  0
   -3.9436   -1.0937   31.7372 C   0  0  0  0  0  0  0  0  0  0  0  0
   -2.7754   -0.7372   30.8240 C   0  0  0  0  0  0  0  0  0  0  0  0
   -1.7561   -1.8655   30.4892 C   0  0  0  0  0  0  0  0  0  0  0  0
   -1.8266   -2.9371   31.0271 O   0  0  0  0  0  0  0  0  0  0  0  0
   -0.7778   -1.3414   29.5130 N   0  0  0  0  0  0  0  0  0  0  0  0
    0.3716   -2.0121   28.8142 C   0  0  0  0  0  0  0  0  0  0  0  0
    1.2139   -2.8310   29.7868 C   0  0  0  0  0  0  0  0  0  0  0  0
    1.2697   -0.9550   28.0723 C   0  0  0  0  0  0  0  0  0  0  0  0
    2.2947   -1.3605   27.0947 N   0  0  0  0  0  0  0  0  0  0  0  0
    3.7366   -1.2791   27.1448 C   0  0  0  0  0  0  0  0  0  0  0  0
    4.4666   -0.9347   28.0280 O   0  0  0  0  0  0  0  0  0  0  0  0
    4.3953   -1.5876   25.8323 C   0  0  0  0  0  0  0  0  0  0  0  0
    4.0043   -1.3750   24.5138 C   0  0  0  0  0  0  0  0  0  0  0  0
    4.9419   -1.6331   23.5144 N   0  0  0  0  0  0  0  0  0  0  0  0
    6.0446   -2.0715   24.0699 C   0  0  0  0  0  0  0  0  0  0  0  0
    6.0483   -2.1360   25.7827 S   0  0  0  0  0  0  0  0  0  0  0  0
   -4.0516   -0.6310   33.0378 N   0  0  0  0  0  0  0  0  0  0  0  0
   -7.5872   -0.0292   36.0047 H   0  0  0  0  0  0  0  0  0  0  0  0
   -7.7541   -1.3317   34.8174 H   0  0  0  0  0  0  0  0  0  0  0  0
   -7.7794    0.3648   34.2931 H   0  0  0  0  0  0  0  0  0  0  0  0
   -5.4366    0.6665   34.9957 H   0  0  0  0  0  0  0  0  0  0  0  0
   -5.3677   -0.9878   35.5920 H   0  0  0  0  0  0  0  0  0  0  0  0
   -6.9815   -1.8165   32.3662 H   0  0  0  0  0  0  0  0  0  0  0  0
   -3.2007   -0.3811   29.8773 H   0  0  0  0  0  0  0  0  0  0  0  0
   -2.2130    0.0918   31.2711 H   0  0  0  0  0  0  0  0  0  0  0  0
   -1.0734   -0.4214   29.2073 H   0  0  0  0  0  0  0  0  0  0  0  0
   -0.0782   -2.6871   28.0796 H   0  0  0  0  0  0  0  0  0  0  0  0
    1.6132   -2.2024   30.5899 H   0  0  0  0  0  0  0  0  0  0  0  0
    2.0548   -3.3075   29.2723 H   0  0  0  0  0  0  0  0  0  0  0  0
    0.6203   -3.6247   30.2510 H   0  0  0  0  0  0  0  0  0  0  0  0
    1.7766   -0.3364   28.8232 H   0  0  0  0  0  0  0  0  0  0  0  0
    0.6085   -0.2803   27.5154 H   0  0  0  0  0  0  0  0  0  0  0  0
    2.0158   -1.7775   26.2056 H   0  0  0  0  0  0  0  0  0  0  0  0
    3.0436   -0.9796   24.2102 H   0  0  0  0  0  0  0  0  0  0  0  0
    6.9050   -2.3698   23.4873 H   0  0  0  0  0  0  0  0  0  0  0  0
   -3.3256   -0.1393   33.5393 H   0  0  0  0  0  0  0  0  0  0  0  0
  1  2  1  0
  2  3  1  0
  3  4  2  0
  4  5  1  0
  5  6  2  0
  6  7  1  0
  7  8  1  0
  8  9  2  0
  8 10  1  0
 10 11  1  0
 11 12  1  0
 11 13  1  0
 13 14  1  0
 14 15  1  0
 15 16  2  0
 15 17  1  0
 17 18  2  0
 18 19  1  0
 19 20  2  0
 20 21  1  0
  6 22  1  0
 22  3  1  0
 21 17  1  0
  1 23  1  0
  1 24  1  0
  1 25  1  0
  2 26  1  0
  2 27  1  0
  4 28  1  0
  7 29  1  0
  7 30  1  0
 10 31  1  0
 11 32  1  0
 12 33  1  0
 12 34  1  0
 12 35  1  0
 13 36  1  0
 13 37  1  0
 14 38  1  0
 18 39  1  0
 20 40  1  0
 22 41  1  0
M  END
>  <Energy>  (1458) 
31.559536963294427

>  <compound_id>  (1458) 
7727

>  <target_id>  (1458) 
1

>  <reference_id>  (1458) 
63

>  <inspiration_ids>  (1458) 
[63, 7]

>  <energy_score>  (1458) 
-16.93194269123299

>  <distance_score>  (1458) 
11.99716045684601

>  <path>  (1458) 
/opt/xchem-fragalysis-2/maxwin/BulkDock/SCRATCH/511021/C7727-P63/C7727-P63.minimised.mol

>  <scratch_subdir>  (1458) 
/opt/xchem-fragalysis-2/maxwin/BulkDock/SCRATCH/511021/C7727-P63

>  <fragmenstein_runtime>  (1458) 
14.015963792800903

>  <fragmenstein_outcome>  (1458) 
too moved

>  <fragmenstein_mode>  (1458) 
expansion

>  <fragmenstein_error>  (1458) 


$$$$
C7727-P7
     RDKit          3D

 41 42  0  0  0  0  0  0  0  0999 V2000
   -6.8730    0.3767   34.4964 C   0  0  0  0  0  0  0  0  0  0  0  0
   -5.4951    0.6368   33.9085 C   0  0  0  0  0  0  0  0  0  0  0  0
   -5.0951   -0.3471   32.8557 C   0  0  0  0  0  0  0  0  0  0  0  0
   -5.7227   -1.4578   32.3431 C   0  0  0  0  0  0  0  0  0  0  0  0
   -4.9308   -2.0985   31.4261 N   0  0  0  0  0  0  0  0  0  0  0  0
   -3.8454   -1.3527   31.2819 C   0  0  0  0  0  0  0  0  0  0  0  0
   -2.7090   -1.6953   30.3284 C   0  0  0  0  0  0  0  0  0  0  0  0
   -1.6151   -0.6428   30.0389 C   0  0  0  0  0  0  0  0  0  0  0  0
   -1.6183    0.4159   30.6059 O   0  0  0  0  0  0  0  0  0  0  0  0
   -0.6758   -1.1983   29.0460 N   0  0  0  0  0  0  0  0  0  0  0  0
    0.5044   -0.5841   28.3631 C   0  0  0  0  0  0  0  0  0  0  0  0
    1.1320    0.5373   29.1860 C   0  0  0  0  0  0  0  0  0  0  0  0
    1.5882   -1.6602   27.9880 C   0  0  0  0  0  0  0  0  0  0  0  0
    2.4979   -1.3773   26.8663 N   0  0  0  0  0  0  0  0  0  0  0  0
    3.7754   -0.7070   26.8290 C   0  0  0  0  0  0  0  0  0  0  0  0
    4.3823   -0.1409   27.6902 O   0  0  0  0  0  0  0  0  0  0  0  0
    4.4443   -0.7650   25.4799 C   0  0  0  0  0  0  0  0  0  0  0  0
    4.0368   -1.1135   24.1958 C   0  0  0  0  0  0  0  0  0  0  0  0
    4.9804   -1.0040   23.1699 N   0  0  0  0  0  0  0  0  0  0  0  0
    6.1152   -0.5833   23.6689 C   0  0  0  0  0  0  0  0  0  0  0  0
    6.1325   -0.3089   25.3544 S   0  0  0  0  0  0  0  0  0  0  0  0
   -3.9122   -0.2720   32.1409 N   0  0  0  0  0  0  0  0  0  0  0  0
   -7.1116    1.1338   35.2501 H   0  0  0  0  0  0  0  0  0  0  0  0
   -6.9205   -0.6054   34.9795 H   0  0  0  0  0  0  0  0  0  0  0  0
   -7.6487    0.4111   33.7246 H   0  0  0  0  0  0  0  0  0  0  0  0
   -4.7549    0.6040   34.7171 H   0  0  0  0  0  0  0  0  0  0  0  0
   -5.4577    1.6463   33.4866 H   0  0  0  0  0  0  0  0  0  0  0  0
   -6.7029   -1.8335   32.5966 H   0  0  0  0  0  0  0  0  0  0  0  0
   -2.2067   -2.5867   30.7241 H   0  0  0  0  0  0  0  0  0  0  0  0
   -3.1664   -1.9573   29.3662 H   0  0  0  0  0  0  0  0  0  0  0  0
   -1.0296   -2.0929   28.7160 H   0  0  0  0  0  0  0  0  0  0  0  0
    0.1041   -0.1560   27.4373 H   0  0  0  0  0  0  0  0  0  0  0  0
    2.0001    0.9637   28.6746 H   0  0  0  0  0  0  0  0  0  0  0  0
    1.4542    0.1757   30.1683 H   0  0  0  0  0  0  0  0  0  0  0  0
    0.4204    1.3535   29.3456 H   0  0  0  0  0  0  0  0  0  0  0  0
    1.0891   -2.5998   27.7291 H   0  0  0  0  0  0  0  0  0  0  0  0
    2.2134   -1.8640   28.8654 H   0  0  0  0  0  0  0  0  0  0  0  0
    2.2516   -1.6760   25.9238 H   0  0  0  0  0  0  0  0  0  0  0  0
    3.0465   -1.4490   23.9170 H   0  0  0  0  0  0  0  0  0  0  0  0
    6.9917   -0.4181   23.0584 H   0  0  0  0  0  0  0  0  0  0  0  0
   -3.2055    0.4532   32.2024 H   0  0  0  0  0  0  0  0  0  0  0  0
  1  2  1  0
  2  3  1  0
  3  4  2  0
  4  5  1  0
  5  6  2  0
  6  7  1  0
  7  8  1  0
  8  9  2  0
  8 10  1  0
 10 11  1  0
 11 12  1  0
 11 13  1  0
 13 14  1  0
 14 15  1  0
 15 16  2  0
 15 17  1  0
 17 18  2  0
 18 19  1  0
 19 20  2  0
 20 21  1  0
  6 22  1  0
 22  3  1  0
 21 17  1  0
  1 23  1  0
  1 24  1  0
  1 25  1  0
  2 26  1  0
  2 27  1  0
  4 28  1  0
  7 29  1  0
  7 30  1  0
 10 31  1  0
 11 32  1  0
 12 33  1  0
 12 34  1  0
 12 35  1  0
 13 36  1  0
 13 37  1  0
 14 38  1  0
 18 39  1  0
 20 40  1  0
 22 41  1  0
M  END
>  <Energy>  (1459) 
22.924172185715129

>  <compound_id>  (1459) 
7727

>  <target_id>  (1459) 
1

>  <reference_id>  (1459) 
7

>  <inspiration_ids>  (1459) 
[63, 7]

>  <energy_score>  (1459) 
-25.567307468812004

>  <distance_score>  (1459) 
12.100543440486433

>  <path>  (1459) 
/opt/xchem-fragalysis-2/maxwin/BulkDock/SCRATCH/511021/C7727-P7/C7727-P7.minimised.mol

>  <scratch_subdir>  (1459) 
/opt/xchem-fragalysis-2/maxwin/BulkDock/SCRATCH/511021/C7727-P7

>  <fragmenstein_runtime>  (1459) 
12.282752990722656

>  <fragmenstein_outcome>  (1459) 
too moved

>  <fragmenstein_mode>  (1459) 
expansion

>  <fragmenstein_error>  (1459) 


$$$$
C11944-P63
     RDKit          3D

 41 42  0  0  0  0  0  0  0  0999 V2000
   -0.3907   -3.3100   30.5268 C   0  0  0  0  0  0  0  0  0  0  0  0
    0.2740   -1.9400   30.3038 C   0  0  0  0  0  0  0  0  0  0  0  0
    0.0901   -1.0413   31.5603 C   0  0  0  0  0  0  0  0  0  0  0  0
   -1.2689   -0.7214   31.9880 N   0  0  0  0  0  0  0  0  0  0  0  0
   -2.2440   -1.5059   32.6922 C   0  0  0  0  0  0  0  0  0  0  0  0
   -2.2224   -2.6501   33.0398 O   0  0  0  0  0  0  0  0  0  0  0  0
   -3.4490   -0.7308   33.1539 C   0  0  0  0  0  0  0  0  0  0  0  0
   -4.7115   -1.3391   33.1461 C   0  0  0  0  0  0  0  0  0  0  0  0
   -5.7875   -0.6560   33.6925 C   0  0  0  0  0  0  0  0  0  0  0  0
   -5.6814    0.5641   34.2586 N   0  0  0  0  0  0  0  0  0  0  0  0
   -4.4505    1.1275   34.2606 C   0  0  0  0  0  0  0  0  0  0  0  0
   -3.3149    0.5316   33.7298 C   0  0  0  0  0  0  0  0  0  0  0  0
    1.7197   -2.0271   29.9221 N   0  0  0  0  0  0  0  0  0  0  0  0
    2.3631   -2.5324   28.7048 C   0  0  0  0  0  0  0  0  0  0  0  0
    1.8962   -3.0742   27.7451 O   0  0  0  0  0  0  0  0  0  0  0  0
    3.9090   -2.2252   28.7541 C   0  0  0  0  0  0  0  0  0  0  0  0
    4.6791   -2.2556   27.4198 C   0  0  0  0  0  0  0  0  0  0  0  0
    5.7829   -2.9503   27.1617 N   0  0  0  0  0  0  0  0  0  0  0  0
    6.1430   -2.6625   25.8632 C   0  0  0  0  0  0  0  0  0  0  0  0
    5.2982   -1.7228   25.3334 C   0  0  0  0  0  0  0  0  0  0  0  0
    4.4153   -1.4387   26.3429 N   0  0  0  0  0  0  0  0  0  0  0  0
    3.4284   -0.3981   26.3389 C   0  0  0  0  0  0  0  0  0  0  0  0
   -0.1901   -3.9716   29.6771 H   0  0  0  0  0  0  0  0  0  0  0  0
    0.0037   -3.7990   31.4233 H   0  0  0  0  0  0  0  0  0  0  0  0
   -1.4748   -3.2130   30.6168 H   0  0  0  0  0  0  0  0  0  0  0  0
   -0.2228   -1.4685   29.4471 H   0  0  0  0  0  0  0  0  0  0  0  0
    0.5920   -0.0809   31.3953 H   0  0  0  0  0  0  0  0  0  0  0  0
    0.5826   -1.5202   32.4153 H   0  0  0  0  0  0  0  0  0  0  0  0
   -1.6606    0.1921   31.7896 H   0  0  0  0  0  0  0  0  0  0  0  0
   -4.8471   -2.3269   32.7208 H   0  0  0  0  0  0  0  0  0  0  0  0
   -6.7855   -1.0856   33.6896 H   0  0  0  0  0  0  0  0  0  0  0  0
   -4.3949    2.1036   34.7356 H   0  0  0  0  0  0  0  0  0  0  0  0
   -2.3539    1.0239   33.8216 H   0  0  0  0  0  0  0  0  0  0  0  0
    2.4337   -1.7008   30.5640 H   0  0  0  0  0  0  0  0  0  0  0  0
    4.0565   -1.2317   29.1945 H   0  0  0  0  0  0  0  0  0  0  0  0
    4.3588   -2.9632   29.4287 H   0  0  0  0  0  0  0  0  0  0  0  0
    6.9896   -3.1457   25.3954 H   0  0  0  0  0  0  0  0  0  0  0  0
    5.2421   -1.2410   24.3670 H   0  0  0  0  0  0  0  0  0  0  0  0
    2.4605   -0.8186   26.6057 H   0  0  0  0  0  0  0  0  0  0  0  0
    3.3810    0.0474   25.3539 H   0  0  0  0  0  0  0  0  0  0  0  0
    3.7216    0.3620   27.0680 H   0  0  0  0  0  0  0  0  0  0  0  0
  1  2  1  0
  2  3  1  0
  3  4  1  0
  4  5  1  0
  5  6  2  0
  5  7  1  0
  7  8  2  0
  8  9  1  0
  9 10  2  0
 10 11  1  0
 11 12  2  0
  2 13  1  0
 13 14  1  0
 14 15  2  0
 14 16  1  0
 16 17  1  0
 17 18  2  0
 18 19  1  0
 19 20  2  0
 20 21  1  0
 21 22  1  0
 12  7  1  0
 21 17  1  0
  1 23  1  0
  1 24  1  0
  1 25  1  0
  2 26  1  0
  3 27  1  0
  3 28  1  0
  4 29  1  0
  8 30  1  0
  9 31  1  0
 11 32  1  0
 12 33  1  0
 13 34  1  0
 16 35  1  0
 16 36  1  0
 19 37  1  0
 20 38  1  0
 22 39  1  0
 22 40  1  0
 22 41  1  0
M  END
>  <Energy>  (1460) 
36.38079163053311

>  <compound_id>  (1460) 
11944

>  <target_id>  (1460) 
1

>  <reference_id>  (1460) 
63

>  <inspiration_ids>  (1460) 
[63, 7]

>  <energy_score>  (1460) 
-5.895589352094959

>  <distance_score>  (1460) 
12.127559792620476

>  <path>  (1460) 
/opt/xchem-fragalysis-2/maxwin/BulkDock/SCRATCH/511021/C11944-P63/C11944-P63.minimised.mol

>  <scratch_subdir>  (1460) 
/opt/xchem-fragalysis-2/maxwin/BulkDock/SCRATCH/511021/C11944-P63

>  <fragmenstein_runtime>  (1460) 
22.748129844665527

>  <fragmenstein_outcome>  (1460) 
too moved

>  <fragmenstein_mode>  (1460) 
expansion

>  <fragmenstein_error>  (1460) 


$$$$
C11944-P7
     RDKit          3D

 41 42  0  0  0  0  0  0  0  0999 V2000
   -2.7315   -8.2260   23.9025 C   0  0  0  0  0  0  0  0  0  0  0  0
   -1.2637   -8.4724   24.2790 C   0  0  0  0  0  0  0  0  0  0  0  0
   -1.0044   -8.2619   25.8042 C   0  0  0  0  0  0  0  0  0  0  0  0
   -2.0503   -8.5193   26.7986 N   0  0  0  0  0  0  0  0  0  0  0  0
   -2.9226   -9.6433   26.9777 C   0  0  0  0  0  0  0  0  0  0  0  0
   -3.0762  -10.6253   26.3155 O   0  0  0  0  0  0  0  0  0  0  0  0
   -3.7303   -9.5464   28.2390 C   0  0  0  0  0  0  0  0  0  0  0  0
   -5.1065   -9.2854   28.2035 C   0  0  0  0  0  0  0  0  0  0  0  0
   -5.7983   -9.2046   29.4037 C   0  0  0  0  0  0  0  0  0  0  0  0
   -5.2155   -9.3967   30.6038 N   0  0  0  0  0  0  0  0  0  0  0  0
   -3.8966   -9.7198   30.6038 C   0  0  0  0  0  0  0  0  0  0  0  0
   -3.1107   -9.7841   29.4625 C   0  0  0  0  0  0  0  0  0  0  0  0
   -0.3829   -7.5778   23.4520 N   0  0  0  0  0  0  0  0  0  0  0  0
    0.8116   -7.8813   22.6368 C   0  0  0  0  0  0  0  0  0  0  0  0
    1.3280   -8.9305   22.3693 O   0  0  0  0  0  0  0  0  0  0  0  0
    1.3341   -6.5499   22.0005 C   0  0  0  0  0  0  0  0  0  0  0  0
    2.7430   -6.5021   21.4093 C   0  0  0  0  0  0  0  0  0  0  0  0
    3.6944   -5.6559   21.7910 N   0  0  0  0  0  0  0  0  0  0  0  0
    4.7342   -5.7913   20.9043 C   0  0  0  0  0  0  0  0  0  0  0  0
    4.4214   -6.7151   19.9412 C   0  0  0  0  0  0  0  0  0  0  0  0
    3.1656   -7.1654   20.2723 N   0  0  0  0  0  0  0  0  0  0  0  0
    2.4300   -8.1634   19.5337 C   0  0  0  0  0  0  0  0  0  0  0  0
   -2.8854   -8.5255   22.8582 H   0  0  0  0  0  0  0  0  0  0  0  0
   -3.4369   -8.8039   24.4978 H   0  0  0  0  0  0  0  0  0  0  0  0
   -2.9710   -7.1661   23.9382 H   0  0  0  0  0  0  0  0  0  0  0  0
   -1.0024   -9.5054   24.0222 H   0  0  0  0  0  0  0  0  0  0  0  0
   -0.1413   -8.8670   26.1024 H   0  0  0  0  0  0  0  0  0  0  0  0
   -0.7390   -7.2114   25.9695 H   0  0  0  0  0  0  0  0  0  0  0  0
   -2.1283   -7.9089   27.6037 H   0  0  0  0  0  0  0  0  0  0  0  0
   -5.6266   -9.1952   27.2558 H   0  0  0  0  0  0  0  0  0  0  0  0
   -6.8667   -9.0106   29.4313 H   0  0  0  0  0  0  0  0  0  0  0  0
   -3.4724   -9.9125   31.5867 H   0  0  0  0  0  0  0  0  0  0  0  0
   -2.0596  -10.0432   29.5267 H   0  0  0  0  0  0  0  0  0  0  0  0
   -0.5792   -6.5890   23.3966 H   0  0  0  0  0  0  0  0  0  0  0  0
    0.6242   -6.2705   21.2126 H   0  0  0  0  0  0  0  0  0  0  0  0
    1.2919   -5.7708   22.7694 H   0  0  0  0  0  0  0  0  0  0  0  0
    5.6405   -5.2113   21.0121 H   0  0  0  0  0  0  0  0  0  0  0  0
    4.9650   -7.0904   19.0864 H   0  0  0  0  0  0  0  0  0  0  0  0
    2.6119   -9.1355   19.9973 H   0  0  0  0  0  0  0  0  0  0  0  0
    1.3659   -7.9186   19.5467 H   0  0  0  0  0  0  0  0  0  0  0  0
    2.7819   -8.1729   18.4984 H   0  0  0  0  0  0  0  0  0  0  0  0
  1  2  1  0
  2  3  1  0
  3  4  1  0
  4  5  1  0
  5  6  2  0
  5  7  1  0
  7  8  2  0
  8  9  1  0
  9 10  2  0
 10 11  1  0
 11 12  2  0
  2 13  1  0
 13 14  1  0
 14 15  2  0
 14 16  1  0
 16 17  1  0
 17 18  2  0
 18 19  1  0
 19 20  2  0
 20 21  1  0
 21 22  1  0
 12  7  1  0
 21 17  1  0
  1 23  1  0
  1 24  1  0
  1 25  1  0
  2 26  1  0
  3 27  1  0
  3 28  1  0
  4 29  1  0
  8 30  1  0
  9 31  1  0
 11 32  1  0
 12 33  1  0
 13 34  1  0
 16 35  1  0
 16 36  1  0
 19 37  1  0
 20 38  1  0
 22 39  1  0
 22 40  1  0
 22 41  1  0
M  END
>  <Energy>  (1461) 
37.384207414412671

>  <compound_id>  (1461) 
11944

>  <target_id>  (1461) 
1

>  <reference_id>  (1461) 
7

>  <inspiration_ids>  (1461) 
[63, 7]

>  <energy_score>  (1461) 
-4.892173568216464

>  <distance_score>  (1461) 
14.287201447460307

>  <path>  (1461) 
/opt/xchem-fragalysis-2/maxwin/BulkDock/SCRATCH/511021/C11944-P7/C11944-P7.minimised.mol

>  <scratch_subdir>  (1461) 
/opt/xchem-fragalysis-2/maxwin/BulkDock/SCRATCH/511021/C11944-P7

>  <fragmenstein_runtime>  (1461) 
18.5502872467041

>  <fragmenstein_outcome>  (1461) 
too moved

>  <fragmenstein_mode>  (1461) 
expansion

>  <fragmenstein_error>  (1461) 


$$$$
C7728-P63
     RDKit          3D

 38 39  0  0  0  0  0  0  0  0999 V2000
   -1.6685    0.0440   29.7453 C   0  0  0  0  0  0  0  0  0  0  0  0
   -0.9511   -0.3513   31.0328 C   0  0  0  0  0  0  0  0  0  0  0  0
    0.1654   -1.4010   30.7299 C   0  0  0  0  0  0  0  0  0  0  0  0
    1.0968   -1.1372   29.6346 N   0  0  0  0  0  0  0  0  0  0  0  0
    2.1101   -0.1302   29.4803 C   0  0  0  0  0  0  0  0  0  0  0  0
    2.3965    0.7988   30.1757 O   0  0  0  0  0  0  0  0  0  0  0  0
    2.9485   -0.3492   28.2710 C   0  0  0  0  0  0  0  0  0  0  0  0
    3.9255    0.4942   27.7524 C   0  0  0  0  0  0  0  0  0  0  0  0
    4.5903    0.0700   26.6166 N   0  0  0  0  0  0  0  0  0  0  0  0
    4.1188   -1.1058   26.2637 C   0  0  0  0  0  0  0  0  0  0  0  0
    2.9222   -1.7678   27.3004 S   0  0  0  0  0  0  0  0  0  0  0  0
   -1.9111   -0.8623   32.0517 N   0  0  0  0  0  0  0  0  0  0  0  0
   -3.1434   -0.2750   32.5910 C   0  0  0  0  0  0  0  0  0  0  0  0
   -3.7276    0.7268   32.2887 O   0  0  0  0  0  0  0  0  0  0  0  0
   -3.7288   -1.2328   33.6647 C   0  0  0  0  0  0  0  0  0  0  0  0
   -4.9046   -0.6950   34.4627 C   0  0  0  0  0  0  0  0  0  0  0  0
   -4.8221   -0.2249   35.6995 N   0  0  0  0  0  0  0  0  0  0  0  0
   -6.0987    0.0714   36.1027 C   0  0  0  0  0  0  0  0  0  0  0  0
   -6.9973   -0.2660   35.1261 C   0  0  0  0  0  0  0  0  0  0  0  0
   -6.2348   -0.7480   34.0920 N   0  0  0  0  0  0  0  0  0  0  0  0
   -6.7897   -1.2160   32.8506 C   0  0  0  0  0  0  0  0  0  0  0  0
   -0.9831    0.5348   29.0465 H   0  0  0  0  0  0  0  0  0  0  0  0
   -2.0840   -0.8351   29.2436 H   0  0  0  0  0  0  0  0  0  0  0  0
   -2.4848    0.7442   29.9425 H   0  0  0  0  0  0  0  0  0  0  0  0
   -0.4978    0.5483   31.4649 H   0  0  0  0  0  0  0  0  0  0  0  0
    0.7717   -1.5357   31.6333 H   0  0  0  0  0  0  0  0  0  0  0  0
   -0.2987   -2.3693   30.5067 H   0  0  0  0  0  0  0  0  0  0  0  0
    1.1953   -1.8221   28.8903 H   0  0  0  0  0  0  0  0  0  0  0  0
    4.1886    1.4522   28.1865 H   0  0  0  0  0  0  0  0  0  0  0  0
    4.4558   -1.6462   25.3891 H   0  0  0  0  0  0  0  0  0  0  0  0
   -1.6611   -1.6748   32.6040 H   0  0  0  0  0  0  0  0  0  0  0  0
   -4.0096   -2.1699   33.1716 H   0  0  0  0  0  0  0  0  0  0  0  0
   -2.9276   -1.4652   34.3779 H   0  0  0  0  0  0  0  0  0  0  0  0
   -6.2952    0.5020   37.0758 H   0  0  0  0  0  0  0  0  0  0  0  0
   -8.0735   -0.1885   35.0738 H   0  0  0  0  0  0  0  0  0  0  0  0
   -6.1293   -1.9578   32.3997 H   0  0  0  0  0  0  0  0  0  0  0  0
   -6.9061   -0.3545   32.1905 H   0  0  0  0  0  0  0  0  0  0  0  0
   -7.7601   -1.6679   33.0468 H   0  0  0  0  0  0  0  0  0  0  0  0
  1  2  1  0
  2  3  1  0
  3  4  1  0
  4  5  1  0
  5  6  2  0
  5  7  1  0
  7  8  2  0
  8  9  1  0
  9 10  2  0
 10 11  1  0
  2 12  1  0
 12 13  1  0
 13 14  2  0
 13 15  1  0
 15 16  1  0
 16 17  2  0
 17 18  1  0
 18 19  2  0
 19 20  1  0
 20 21  1  0
 11  7  1  0
 20 16  1  0
  1 22  1  0
  1 23  1  0
  1 24  1  0
  2 25  1  0
  3 26  1  0
  3 27  1  0
  4 28  1  0
  8 29  1  0
 10 30  1  0
 12 31  1  0
 15 32  1  0
 15 33  1  0
 18 34  1  0
 19 35  1  0
 21 36  1  0
 21 37  1  0
 21 38  1  0
M  END
>  <Energy>  (1462) 
21.750073491843544

>  <compound_id>  (1462) 
7728

>  <target_id>  (1462) 
1

>  <reference_id>  (1462) 
63

>  <inspiration_ids>  (1462) 
[63, 7]

>  <energy_score>  (1462) 
-64.40139653578692

>  <distance_score>  (1462) 
11.656021728740674

>  <path>  (1462) 
/opt/xchem-fragalysis-2/maxwin/BulkDock/SCRATCH/511021/C7728-P63/C7728-P63.minimised.mol

>  <scratch_subdir>  (1462) 
/opt/xchem-fragalysis-2/maxwin/BulkDock/SCRATCH/511021/C7728-P63

>  <fragmenstein_runtime>  (1462) 
10.122420072555542

>  <fragmenstein_outcome>  (1462) 
too moved

>  <fragmenstein_mode>  (1462) 
expansion

>  <fragmenstein_error>  (1462) 


$$$$
C7728-P7
     RDKit          3D

 38 39  0  0  0  0  0  0  0  0999 V2000
    0.3257   -1.4075   31.6647 C   0  0  0  0  0  0  0  0  0  0  0  0
   -0.7848   -0.8005   30.8076 C   0  0  0  0  0  0  0  0  0  0  0  0
   -0.6275   -1.2157   29.3075 C   0  0  0  0  0  0  0  0  0  0  0  0
    0.6727   -1.0252   28.6525 N   0  0  0  0  0  0  0  0  0  0  0  0
    1.4801    0.1511   28.4836 C   0  0  0  0  0  0  0  0  0  0  0  0
    1.3357    1.2613   28.9033 O   0  0  0  0  0  0  0  0  0  0  0  0
    2.6512   -0.0718   27.5877 C   0  0  0  0  0  0  0  0  0  0  0  0
    3.5199    0.8978   27.0955 C   0  0  0  0  0  0  0  0  0  0  0  0
    4.5124    0.4842   26.2269 N   0  0  0  0  0  0  0  0  0  0  0  0
    4.3779   -0.8072   26.0172 C   0  0  0  0  0  0  0  0  0  0  0  0
    3.1673   -1.5877   26.9579 S   0  0  0  0  0  0  0  0  0  0  0  0
   -2.0998   -1.2062   31.3722 N   0  0  0  0  0  0  0  0  0  0  0  0
   -2.8024   -0.7660   32.5802 C   0  0  0  0  0  0  0  0  0  0  0  0
   -2.5287    0.0904   33.3754 O   0  0  0  0  0  0  0  0  0  0  0  0
   -4.0347   -1.6777   32.8449 C   0  0  0  0  0  0  0  0  0  0  0  0
   -5.2051   -0.9964   33.5317 C   0  0  0  0  0  0  0  0  0  0  0  0
   -6.2836   -0.5283   32.9216 N   0  0  0  0  0  0  0  0  0  0  0  0
   -7.1144   -0.0469   33.8972 C   0  0  0  0  0  0  0  0  0  0  0  0
   -6.5891   -0.2879   35.1382 C   0  0  0  0  0  0  0  0  0  0  0  0
   -5.3761   -0.8781   34.8975 N   0  0  0  0  0  0  0  0  0  0  0  0
   -4.4471   -1.2697   35.9235 C   0  0  0  0  0  0  0  0  0  0  0  0
    0.3018   -2.5020   31.6213 H   0  0  0  0  0  0  0  0  0  0  0  0
    1.3137   -1.0719   31.3352 H   0  0  0  0  0  0  0  0  0  0  0  0
    0.2112   -1.1177   32.7150 H   0  0  0  0  0  0  0  0  0  0  0  0
   -0.7281    0.2906   30.8956 H   0  0  0  0  0  0  0  0  0  0  0  0
   -1.3610   -0.6593   28.7123 H   0  0  0  0  0  0  0  0  0  0  0  0
   -0.8680   -2.2799   29.1978 H   0  0  0  0  0  0  0  0  0  0  0  0
    1.0566   -1.7747   28.0821 H   0  0  0  0  0  0  0  0  0  0  0  0
    3.4517    1.9499   27.3478 H   0  0  0  0  0  0  0  0  0  0  0  0
    4.9973   -1.3582   25.3212 H   0  0  0  0  0  0  0  0  0  0  0  0
   -2.5761   -2.0120   30.9869 H   0  0  0  0  0  0  0  0  0  0  0  0
   -4.4002   -2.1031   31.9053 H   0  0  0  0  0  0  0  0  0  0  0  0
   -3.6852   -2.5224   33.4496 H   0  0  0  0  0  0  0  0  0  0  0  0
   -8.0396    0.4509   33.6493 H   0  0  0  0  0  0  0  0  0  0  0  0
   -6.9434   -0.0596   36.1333 H   0  0  0  0  0  0  0  0  0  0  0  0
   -3.5900   -0.5929   35.8875 H   0  0  0  0  0  0  0  0  0  0  0  0
   -4.1251   -2.2971   35.7427 H   0  0  0  0  0  0  0  0  0  0  0  0
   -4.9255   -1.1998   36.9037 H   0  0  0  0  0  0  0  0  0  0  0  0
  1  2  1  0
  2  3  1  0
  3  4  1  0
  4  5  1  0
  5  6  2  0
  5  7  1  0
  7  8  2  0
  8  9  1  0
  9 10  2  0
 10 11  1  0
  2 12  1  0
 12 13  1  0
 13 14  2  0
 13 15  1  0
 15 16  1  0
 16 17  2  0
 17 18  1  0
 18 19  2  0
 19 20  1  0
 20 21  1  0
 11  7  1  0
 20 16  1  0
  1 22  1  0
  1 23  1  0
  1 24  1  0
  2 25  1  0
  3 26  1  0
  3 27  1  0
  4 28  1  0
  8 29  1  0
 10 30  1  0
 12 31  1  0
 15 32  1  0
 15 33  1  0
 18 34  1  0
 19 35  1  0
 21 36  1  0
 21 37  1  0
 21 38  1  0
M  END
>  <Energy>  (1463) 
20.031259744529834

>  <compound_id>  (1463) 
7728

>  <target_id>  (1463) 
1

>  <reference_id>  (1463) 
7

>  <inspiration_ids>  (1463) 
[63, 7]

>  <energy_score>  (1463) 
-66.12021028309982

>  <distance_score>  (1463) 
11.690734985756844

>  <path>  (1463) 
/opt/xchem-fragalysis-2/maxwin/BulkDock/SCRATCH/511021/C7728-P7/C7728-P7.minimised.mol

>  <scratch_subdir>  (1463) 
/opt/xchem-fragalysis-2/maxwin/BulkDock/SCRATCH/511021/C7728-P7

>  <fragmenstein_runtime>  (1463) 
19.31588101387024

>  <fragmenstein_outcome>  (1463) 
too moved

>  <fragmenstein_mode>  (1463) 
expansion

>  <fragmenstein_error>  (1463) 


$$$$
C11896-P63
     RDKit          3D

 41 42  0  0  0  0  0  0  0  0999 V2000
   -0.0704    3.8541   25.8840 C   0  0  0  0  0  0  0  0  0  0  0  0
    1.0991    3.7301   26.8621 C   0  0  0  0  0  0  0  0  0  0  0  0
    0.6729    4.2404   28.2802 C   0  0  0  0  0  0  0  0  0  0  0  0
   -0.4549    3.5792   28.9634 N   0  0  0  0  0  0  0  0  0  0  0  0
   -0.5101    2.8473   30.2069 C   0  0  0  0  0  0  0  0  0  0  0  0
    0.3621    2.5227   30.9613 O   0  0  0  0  0  0  0  0  0  0  0  0
   -1.8970    2.4723   30.7146 C   0  0  0  0  0  0  0  0  0  0  0  0
   -2.0498    1.3516   31.5525 C   0  0  0  0  0  0  0  0  0  0  0  0
   -3.2790    1.0544   32.1540 C   0  0  0  0  0  0  0  0  0  0  0  0
   -4.3465    1.8949   31.9046 C   0  0  0  0  0  0  0  0  0  0  0  0
   -4.2559    2.9880   31.1148 N   0  0  0  0  0  0  0  0  0  0  0  0
   -3.0361    3.2543   30.5554 C   0  0  0  0  0  0  0  0  0  0  0  0
    2.3056    4.4354   26.3369 N   0  0  0  0  0  0  0  0  0  0  0  0
    2.8858    4.4738   24.9895 C   0  0  0  0  0  0  0  0  0  0  0  0
    2.4901    4.0118   23.9563 O   0  0  0  0  0  0  0  0  0  0  0  0
    4.1814    5.3462   24.9826 C   0  0  0  0  0  0  0  0  0  0  0  0
    5.1904    5.0914   23.8566 C   0  0  0  0  0  0  0  0  0  0  0  0
    6.4588    4.7474   24.0526 N   0  0  0  0  0  0  0  0  0  0  0  0
    7.0681    4.7231   22.8214 C   0  0  0  0  0  0  0  0  0  0  0  0
    6.1759    5.0798   21.8465 C   0  0  0  0  0  0  0  0  0  0  0  0
    4.9868    5.2965   22.5039 N   0  0  0  0  0  0  0  0  0  0  0  0
    3.7634    5.7022   21.8546 C   0  0  0  0  0  0  0  0  0  0  0  0
    0.1768    3.4145   24.9127 H   0  0  0  0  0  0  0  0  0  0  0  0
   -0.9572    3.3303   26.2543 H   0  0  0  0  0  0  0  0  0  0  0  0
   -0.3348    4.9039   25.7172 H   0  0  0  0  0  0  0  0  0  0  0  0
    1.3785    2.6726   26.9354 H   0  0  0  0  0  0  0  0  0  0  0  0
    1.5355    4.1686   28.9530 H   0  0  0  0  0  0  0  0  0  0  0  0
    0.4071    5.3021   28.2169 H   0  0  0  0  0  0  0  0  0  0  0  0
   -1.3794    3.5997   28.5509 H   0  0  0  0  0  0  0  0  0  0  0  0
   -1.1903    0.7145   31.7582 H   0  0  0  0  0  0  0  0  0  0  0  0
   -3.3890    0.1895   32.7983 H   0  0  0  0  0  0  0  0  0  0  0  0
   -5.3239    1.7020   32.3335 H   0  0  0  0  0  0  0  0  0  0  0  0
   -3.0103    4.1795   29.9871 H   0  0  0  0  0  0  0  0  0  0  0  0
    2.8714    5.0038   26.9586 H   0  0  0  0  0  0  0  0  0  0  0  0
    4.7103    5.1882   25.9305 H   0  0  0  0  0  0  0  0  0  0  0  0
    3.8709    6.3969   24.9467 H   0  0  0  0  0  0  0  0  0  0  0  0
    8.1096    4.4503   22.7154 H   0  0  0  0  0  0  0  0  0  0  0  0
    6.2579    5.1668   20.7734 H   0  0  0  0  0  0  0  0  0  0  0  0
    3.1955    4.8087   21.5888 H   0  0  0  0  0  0  0  0  0  0  0  0
    3.1886    6.3437   22.5259 H   0  0  0  0  0  0  0  0  0  0  0  0
    4.0111    6.2661   20.9509 H   0  0  0  0  0  0  0  0  0  0  0  0
  1  2  1  0
  2  3  1  0
  3  4  1  0
  4  5  1  0
  5  6  2  0
  5  7  1  0
  7  8  2  0
  8  9  1  0
  9 10  2  0
 10 11  1  0
 11 12  2  0
  2 13  1  0
 13 14  1  0
 14 15  2  0
 14 16  1  0
 16 17  1  0
 17 18  2  0
 18 19  1  0
 19 20  2  0
 20 21  1  0
 21 22  1  0
 12  7  1  0
 21 17  1  0
  1 23  1  0
  1 24  1  0
  1 25  1  0
  2 26  1  0
  3 27  1  0
  3 28  1  0
  4 29  1  0
  8 30  1  0
  9 31  1  0
 10 32  1  0
 12 33  1  0
 13 34  1  0
 16 35  1  0
 16 36  1  0
 19 37  1  0
 20 38  1  0
 22 39  1  0
 22 40  1  0
 22 41  1  0
M  END
>  <Energy>  (1464) 
56.695007102884468

>  <compound_id>  (1464) 
11896

>  <target_id>  (1464) 
1

>  <reference_id>  (1464) 
63

>  <inspiration_ids>  (1464) 
[63, 7]

>  <energy_score>  (1464) 
-0.5161417526346952

>  <distance_score>  (1464) 
11.648376533744207

>  <path>  (1464) 
/opt/xchem-fragalysis-2/maxwin/BulkDock/SCRATCH/511021/C11896-P63/C11896-P63.minimised.mol

>  <scratch_subdir>  (1464) 
/opt/xchem-fragalysis-2/maxwin/BulkDock/SCRATCH/511021/C11896-P63

>  <fragmenstein_runtime>  (1464) 
16.152214288711548

>  <fragmenstein_outcome>  (1464) 
too moved

>  <fragmenstein_mode>  (1464) 
expansion

>  <fragmenstein_error>  (1464) 


$$$$
C11896-P7
     RDKit          3D

 41 42  0  0  0  0  0  0  0  0999 V2000
    5.0794    0.3200   26.6092 C   0  0  0  0  0  0  0  0  0  0  0  0
    4.1017   -0.1107   25.4845 C   0  0  0  0  0  0  0  0  0  0  0  0
    3.4349   -1.4074   26.0908 C   0  0  0  0  0  0  0  0  0  0  0  0
    2.2315   -1.2912   26.9723 N   0  0  0  0  0  0  0  0  0  0  0  0
    2.0808   -0.7608   28.3107 C   0  0  0  0  0  0  0  0  0  0  0  0
    2.8677   -0.2062   29.0249 O   0  0  0  0  0  0  0  0  0  0  0  0
    0.7043   -0.9635   28.9650 C   0  0  0  0  0  0  0  0  0  0  0  0
   -0.1323   -2.0670   28.7710 C   0  0  0  0  0  0  0  0  0  0  0  0
   -1.3202   -2.2118   29.5162 C   0  0  0  0  0  0  0  0  0  0  0  0
   -1.6551   -1.2481   30.4515 C   0  0  0  0  0  0  0  0  0  0  0  0
   -0.8940   -0.1630   30.6765 N   0  0  0  0  0  0  0  0  0  0  0  0
    0.2618   -0.0595   29.9432 C   0  0  0  0  0  0  0  0  0  0  0  0
    4.8466   -0.3661   24.1374 N   0  0  0  0  0  0  0  0  0  0  0  0
    4.7478    0.5117   22.5094 C   0  0  0  0  0  0  0  0  0  0  0  0
    3.9595    1.4059   22.2877 O   0  0  0  0  0  0  0  0  0  0  0  0
    6.1398    0.0403   21.0794 C   0  0  0  0  0  0  0  0  0  0  0  0
    7.1500    0.3694   19.3131 C   0  0  0  0  0  0  0  0  0  0  0  0
    7.4022    1.7840   19.0522 N   0  0  0  0  0  0  0  0  0  0  0  0
    8.0115    2.2660   17.8763 C   0  0  0  0  0  0  0  0  0  0  0  0
    8.6934    1.2332   17.3512 C   0  0  0  0  0  0  0  0  0  0  0  0
    7.9297    0.0701   17.8101 N   0  0  0  0  0  0  0  0  0  0  0  0
    7.5971   -0.5049   16.4632 C   0  0  0  0  0  0  0  0  0  0  0  0
    5.6916    1.1957   26.4154 H   0  0  0  0  0  0  0  0  0  0  0  0
    4.5324    0.5589   27.5220 H   0  0  0  0  0  0  0  0  0  0  0  0
    5.7837   -0.4877   26.8430 H   0  0  0  0  0  0  0  0  0  0  0  0
    3.3651    0.6783   25.3102 H   0  0  0  0  0  0  0  0  0  0  0  0
    3.1682   -2.0641   25.2637 H   0  0  0  0  0  0  0  0  0  0  0  0
    4.1651   -1.9733   26.6798 H   0  0  0  0  0  0  0  0  0  0  0  0
    1.3808   -1.7671   26.7081 H   0  0  0  0  0  0  0  0  0  0  0  0
    0.1459   -2.8553   28.0790 H   0  0  0  0  0  0  0  0  0  0  0  0
   -1.9577   -3.0765   29.3710 H   0  0  0  0  0  0  0  0  0  0  0  0
   -2.5510   -1.3268   31.0580 H   0  0  0  0  0  0  0  0  0  0  0  0
    0.8644    0.8142   30.1887 H   0  0  0  0  0  0  0  0  0  0  0  0
    5.5045   -1.1194   24.0678 H   0  0  0  0  0  0  0  0  0  0  0  0
    5.2116    0.3429   20.7410 H   0  0  0  0  0  0  0  0  0  0  0  0
    6.6250    1.0583   21.4087 H   0  0  0  0  0  0  0  0  0  0  0  0
    8.0487    3.3229   17.6625 H   0  0  0  0  0  0  0  0  0  0  0  0
    9.3937    1.1539   16.5307 H   0  0  0  0  0  0  0  0  0  0  0  0
    8.4056   -1.1794   16.1595 H   0  0  0  0  0  0  0  0  0  0  0  0
    6.6380   -0.9653   16.4885 H   0  0  0  0  0  0  0  0  0  0  0  0
    7.6081    0.2906   15.7301 H   0  0  0  0  0  0  0  0  0  0  0  0
  1  2  1  0
  2  3  1  0
  3  4  1  0
  4  5  1  0
  5  6  2  0
  5  7  1  0
  7  8  2  0
  8  9  1  0
  9 10  2  0
 10 11  1  0
 11 12  2  0
  2 13  1  0
 13 14  1  0
 14 15  2  0
 14 16  1  0
 16 17  1  0
 17 18  2  0
 18 19  1  0
 19 20  2  0
 20 21  1  0
 21 22  1  0
 12  7  1  0
 21 17  1  0
  1 23  1  0
  1 24  1  0
  1 25  1  0
  2 26  1  0
  3 27  1  0
  3 28  1  0
  4 29  1  0
  8 30  1  0
  9 31  1  0
 10 32  1  0
 12 33  1  0
 13 34  1  0
 16 35  1  0
 16 36  1  0
 19 37  1  0
 20 38  1  0
 22 39  1  0
 22 40  1  0
 22 41  1  0
M  END
>  <Energy>  (1465) 
507.08420412918196

>  <compound_id>  (1465) 
11896

>  <target_id>  (1465) 
1

>  <reference_id>  (1465) 
7

>  <inspiration_ids>  (1465) 
[63, 7]

>  <energy_score>  (1465) 
449.87305527366414

>  <distance_score>  (1465) 
11.38226844799151

>  <path>  (1465) 
/opt/xchem-fragalysis-2/maxwin/BulkDock/SCRATCH/511021/C11896-P7/C11896-P7.minimised.mol

>  <scratch_subdir>  (1465) 
/opt/xchem-fragalysis-2/maxwin/BulkDock/SCRATCH/511021/C11896-P7

>  <fragmenstein_runtime>  (1465) 
12.621378898620605

>  <fragmenstein_outcome>  (1465) 
too moved

>  <fragmenstein_mode>  (1465) 
expansion

>  <fragmenstein_error>  (1465) 


$$$$
C46406-P63
     RDKit          3D

 38 39  0  0  0  0  0  0  0  0999 V2000
    5.4117   -7.7930   16.9371 C   0  0  0  0  0  0  0  0  0  0  0  0
    5.7709   -6.4682   17.6704 C   0  0  0  0  0  0  0  0  0  0  0  0
    7.3331   -6.3944   18.7720 C   0  0  0  0  0  0  0  0  0  0  0  0
    9.4161   -6.0002   19.1551 N   0  0  0  0  0  0  0  0  0  0  0  0
   10.7521   -5.0717   18.1444 C   0  0  0  0  0  0  0  0  0  0  0  0
   10.7086   -4.5705   17.0082 O   0  0  0  0  0  0  0  0  0  0  0  0
   12.3581   -4.8375   18.8433 C   0  0  0  0  0  0  0  0  0  0  0  0
   12.7924   -4.9985   20.1426 C   0  0  0  0  0  0  0  0  0  0  0  0
   14.0746   -4.5362   20.2059 O   0  0  0  0  0  0  0  0  0  0  0  0
   14.3481   -4.1136   18.9407 C   0  0  0  0  0  0  0  0  0  0  0  0
   13.3808   -4.2891   18.0749 N   0  0  0  0  0  0  0  0  0  0  0  0
    4.2577   -6.4072   18.4379 N   0  0  0  0  0  0  0  0  0  0  0  0
    3.2402   -5.2740   18.5580 C   0  0  0  0  0  0  0  0  0  0  0  0
    3.3069   -4.1250   18.2022 O   0  0  0  0  0  0  0  0  0  0  0  0
    1.7687   -5.8416   19.2129 C   0  0  0  0  0  0  0  0  0  0  0  0
    0.8270   -5.0078   20.2583 C   0  0  0  0  0  0  0  0  0  0  0  0
    0.4564   -3.7344   20.1144 N   0  0  0  0  0  0  0  0  0  0  0  0
   -0.5378   -3.4537   21.0332 C   0  0  0  0  0  0  0  0  0  0  0  0
   -0.8144   -4.5488   21.7910 C   0  0  0  0  0  0  0  0  0  0  0  0
    0.0116   -5.5377   21.2981 N   0  0  0  0  0  0  0  0  0  0  0  0
   -0.1604   -6.8828   21.8021 C   0  0  0  0  0  0  0  0  0  0  0  0
    5.8537   -7.9080   15.9489 H   0  0  0  0  0  0  0  0  0  0  0  0
    4.3420   -7.8237   16.6781 H   0  0  0  0  0  0  0  0  0  0  0  0
    5.5689   -8.6646   17.5801 H   0  0  0  0  0  0  0  0  0  0  0  0
    5.7223   -5.7129   16.9154 H   0  0  0  0  0  0  0  0  0  0  0  0
    7.1196   -7.3428   19.3425 H   0  0  0  0  0  0  0  0  0  0  0  0
    6.8787   -5.5102   19.3049 H   0  0  0  0  0  0  0  0  0  0  0  0
    9.7559   -6.2279   20.0925 H   0  0  0  0  0  0  0  0  0  0  0  0
   12.3526   -5.3392   21.0659 H   0  0  0  0  0  0  0  0  0  0  0  0
   15.3281   -3.6889   18.7733 H   0  0  0  0  0  0  0  0  0  0  0  0
    3.8415   -7.2651   18.7676 H   0  0  0  0  0  0  0  0  0  0  0  0
    1.1319   -5.9537   18.3227 H   0  0  0  0  0  0  0  0  0  0  0  0
    1.8985   -6.8520   19.5991 H   0  0  0  0  0  0  0  0  0  0  0  0
   -1.0035   -2.4803   21.0781 H   0  0  0  0  0  0  0  0  0  0  0  0
   -1.5256   -4.7208   22.5851 H   0  0  0  0  0  0  0  0  0  0  0  0
    0.5416   -7.5507   21.3010 H   0  0  0  0  0  0  0  0  0  0  0  0
    0.0178   -6.8800   22.8804 H   0  0  0  0  0  0  0  0  0  0  0  0
   -1.1829   -7.2044   21.5850 H   0  0  0  0  0  0  0  0  0  0  0  0
  1  2  1  0
  2  3  1  0
  3  4  1  0
  4  5  1  0
  5  6  2  0
  5  7  1  0
  7  8  2  0
  8  9  1  0
  9 10  1  0
 10 11  2  0
  2 12  1  0
 12 13  1  0
 13 14  2  0
 13 15  1  0
 15 16  1  0
 16 17  2  0
 17 18  1  0
 18 19  2  0
 19 20  1  0
 20 21  1  0
 11  7  1  0
 20 16  1  0
  1 22  1  0
  1 23  1  0
  1 24  1  0
  2 25  1  0
  3 26  1  0
  3 27  1  0
  4 28  1  0
  8 29  1  0
 10 30  1  0
 12 31  1  0
 15 32  1  0
 15 33  1  0
 18 34  1  0
 19 35  1  0
 21 36  1  0
 21 37  1  0
 21 38  1  0
M  END
>  <Energy>  (1466) 
447.30801086872611

>  <compound_id>  (1466) 
46406

>  <target_id>  (1466) 
1

>  <reference_id>  (1466) 
63

>  <inspiration_ids>  (1466) 
[63, 7]

>  <energy_score>  (1466) 
383.63805543794456

>  <distance_score>  (1466) 
15.494144011641499

>  <path>  (1466) 
/opt/xchem-fragalysis-2/maxwin/BulkDock/SCRATCH/511021/C46406-P63/C46406-P63.minimised.mol

>  <scratch_subdir>  (1466) 
/opt/xchem-fragalysis-2/maxwin/BulkDock/SCRATCH/511021/C46406-P63

>  <fragmenstein_runtime>  (1466) 
9.971187829971313

>  <fragmenstein_outcome>  (1466) 
too moved

>  <fragmenstein_mode>  (1466) 
expansion

>  <fragmenstein_error>  (1466) 


$$$$
C46406-P7
     RDKit          3D

 38 39  0  0  0  0  0  0  0  0999 V2000
    4.5569   -1.9755   24.2866 C   0  0  0  0  0  0  0  0  0  0  0  0
    3.2081   -2.7009   24.4606 C   0  0  0  0  0  0  0  0  0  0  0  0
    2.1156   -3.4215   22.9965 C   0  0  0  0  0  0  0  0  0  0  0  0
    2.2139   -4.0374   21.6355 N   0  0  0  0  0  0  0  0  0  0  0  0
    1.1921   -4.3860   20.6788 C   0  0  0  0  0  0  0  0  0  0  0  0
   -0.0012   -4.3446   20.7607 O   0  0  0  0  0  0  0  0  0  0  0  0
    1.7992   -4.7612   19.3608 C   0  0  0  0  0  0  0  0  0  0  0  0
    1.1144   -5.0022   18.1887 C   0  0  0  0  0  0  0  0  0  0  0  0
    2.0083   -5.2072   17.1804 O   0  0  0  0  0  0  0  0  0  0  0  0
    3.2145   -5.0927   17.7869 C   0  0  0  0  0  0  0  0  0  0  0  0
    3.1670   -4.7975   19.0652 N   0  0  0  0  0  0  0  0  0  0  0  0
    2.7861   -2.0927   26.0446 N   0  0  0  0  0  0  0  0  0  0  0  0
    2.0266   -2.7277   27.1787 C   0  0  0  0  0  0  0  0  0  0  0  0
    1.5906   -3.8487   27.3044 O   0  0  0  0  0  0  0  0  0  0  0  0
    1.6800   -1.7006   28.3163 C   0  0  0  0  0  0  0  0  0  0  0  0
    0.1821   -1.5090   28.7349 C   0  0  0  0  0  0  0  0  0  0  0  0
   -0.4595   -0.3418   28.6374 N   0  0  0  0  0  0  0  0  0  0  0  0
   -1.6719   -0.4748   29.2716 C   0  0  0  0  0  0  0  0  0  0  0  0
   -1.7962   -1.7290   29.7997 C   0  0  0  0  0  0  0  0  0  0  0  0
   -0.6318   -2.3817   29.4570 N   0  0  0  0  0  0  0  0  0  0  0  0
   -0.3623   -3.7392   29.8592 C   0  0  0  0  0  0  0  0  0  0  0  0
    4.8451   -1.8920   23.2517 H   0  0  0  0  0  0  0  0  0  0  0  0
    5.3624   -2.4208   24.8302 H   0  0  0  0  0  0  0  0  0  0  0  0
    4.5451   -0.9626   24.7151 H   0  0  0  0  0  0  0  0  0  0  0  0
    2.7382   -1.7953   24.1560 H   0  0  0  0  0  0  0  0  0  0  0  0
    1.2622   -2.7788   22.7917 H   0  0  0  0  0  0  0  0  0  0  0  0
    1.6274   -4.3093   23.3609 H   0  0  0  0  0  0  0  0  0  0  0  0
    3.1191   -4.2791   21.2532 H   0  0  0  0  0  0  0  0  0  0  0  0
    0.0674   -5.0380   17.9245 H   0  0  0  0  0  0  0  0  0  0  0  0
    4.0783   -5.2589   17.1611 H   0  0  0  0  0  0  0  0  0  0  0  0
    2.9213   -1.1121   26.2423 H   0  0  0  0  0  0  0  0  0  0  0  0
    2.0612   -0.7105   28.0417 H   0  0  0  0  0  0  0  0  0  0  0  0
    2.2392   -2.0151   29.2061 H   0  0  0  0  0  0  0  0  0  0  0  0
   -2.3770    0.3437   29.3145 H   0  0  0  0  0  0  0  0  0  0  0  0
   -2.5855   -2.2075   30.3602 H   0  0  0  0  0  0  0  0  0  0  0  0
   -0.9814   -4.0007   30.7209 H   0  0  0  0  0  0  0  0  0  0  0  0
   -0.5874   -4.3950   29.0152 H   0  0  0  0  0  0  0  0  0  0  0  0
    0.6917   -3.8237   30.1345 H   0  0  0  0  0  0  0  0  0  0  0  0
  1  2  1  0
  2  3  1  0
  3  4  1  0
  4  5  1  0
  5  6  2  0
  5  7  1  0
  7  8  2  0
  8  9  1  0
  9 10  1  0
 10 11  2  0
  2 12  1  0
 12 13  1  0
 13 14  2  0
 13 15  1  0
 15 16  1  0
 16 17  2  0
 17 18  1  0
 18 19  2  0
 19 20  1  0
 20 21  1  0
 11  7  1  0
 20 16  1  0
  1 22  1  0
  1 23  1  0
  1 24  1  0
  2 25  1  0
  3 26  1  0
  3 27  1  0
  4 28  1  0
  8 29  1  0
 10 30  1  0
 12 31  1  0
 15 32  1  0
 15 33  1  0
 18 34  1  0
 19 35  1  0
 21 36  1  0
 21 37  1  0
 21 38  1  0
M  END
>  <Energy>  (1467) 
185.44039130418196

>  <compound_id>  (1467) 
46406

>  <target_id>  (1467) 
1

>  <reference_id>  (1467) 
7

>  <inspiration_ids>  (1467) 
[63, 7]

>  <energy_score>  (1467) 
121.77043587340594

>  <distance_score>  (1467) 
12.971899477576182

>  <path>  (1467) 
/opt/xchem-fragalysis-2/maxwin/BulkDock/SCRATCH/511021/C46406-P7/C46406-P7.minimised.mol

>  <scratch_subdir>  (1467) 
/opt/xchem-fragalysis-2/maxwin/BulkDock/SCRATCH/511021/C46406-P7

>  <fragmenstein_runtime>  (1467) 
8.092942476272583

>  <fragmenstein_outcome>  (1467) 
too moved

>  <fragmenstein_mode>  (1467) 
expansion

>  <fragmenstein_error>  (1467) 


$$$$
C46407-P63
     RDKit          3D

 38 39  0  0  0  0  0  0  0  0999 V2000
    5.8552   -1.3374   20.0819 C   0  0  0  0  0  0  0  0  0  0  0  0
    5.6463   -2.7701   20.8188 C   0  0  0  0  0  0  0  0  0  0  0  0
    5.9548   -4.5277   19.7570 C   0  0  0  0  0  0  0  0  0  0  0  0
    6.3706   -5.0782   18.4422 N   0  0  0  0  0  0  0  0  0  0  0  0
    5.7262   -5.9662   17.5524 C   0  0  0  0  0  0  0  0  0  0  0  0
    4.7186   -6.5997   17.6681 O   0  0  0  0  0  0  0  0  0  0  0  0
    6.7323   -5.7664   16.1567 C   0  0  0  0  0  0  0  0  0  0  0  0
    7.8037   -4.3092   15.8172 C   0  0  0  0  0  0  0  0  0  0  0  0
    6.9544   -3.0949   15.1512 N   0  0  0  0  0  0  0  0  0  0  0  0
    5.6942   -3.5263   14.9904 C   0  0  0  0  0  0  0  0  0  0  0  0
    5.3902   -4.8353   15.5439 O   0  0  0  0  0  0  0  0  0  0  0  0
    5.1733   -2.1346   22.6290 N   0  0  0  0  0  0  0  0  0  0  0  0
    3.8190   -2.3874   23.5539 C   0  0  0  0  0  0  0  0  0  0  0  0
    2.8016   -2.9585   23.2460 O   0  0  0  0  0  0  0  0  0  0  0  0
    3.9711   -1.8646   25.1875 C   0  0  0  0  0  0  0  0  0  0  0  0
    2.9980   -1.0274   26.1899 C   0  0  0  0  0  0  0  0  0  0  0  0
    3.1294    0.2925   26.4014 N   0  0  0  0  0  0  0  0  0  0  0  0
    2.2525    0.6827   27.3907 C   0  0  0  0  0  0  0  0  0  0  0  0
    1.5883   -0.3964   27.8880 C   0  0  0  0  0  0  0  0  0  0  0  0
    2.1159   -1.4837   27.2115 N   0  0  0  0  0  0  0  0  0  0  0  0
    1.7558   -2.8031   27.6761 C   0  0  0  0  0  0  0  0  0  0  0  0
    6.8912   -0.9824   20.0599 H   0  0  0  0  0  0  0  0  0  0  0  0
    5.4620   -1.3429   19.0599 H   0  0  0  0  0  0  0  0  0  0  0  0
    5.4052   -0.5081   20.6400 H   0  0  0  0  0  0  0  0  0  0  0  0
    4.7336   -3.2170   20.6843 H   0  0  0  0  0  0  0  0  0  0  0  0
    6.8966   -4.9448   20.0467 H   0  0  0  0  0  0  0  0  0  0  0  0
    4.9019   -4.7566   19.5365 H   0  0  0  0  0  0  0  0  0  0  0  0
    7.2178   -4.8036   18.0547 H   0  0  0  0  0  0  0  0  0  0  0  0
    8.7555   -4.2153   15.2623 H   0  0  0  0  0  0  0  0  0  0  0  0
    4.8467   -3.0185   14.5497 H   0  0  0  0  0  0  0  0  0  0  0  0
    5.7879   -1.5814   23.1150 H   0  0  0  0  0  0  0  0  0  0  0  0
    4.9877   -1.5252   25.3793 H   0  0  0  0  0  0  0  0  0  0  0  0
    3.9398   -2.8441   25.6763 H   0  0  0  0  0  0  0  0  0  0  0  0
    2.1660    1.7200   27.6820 H   0  0  0  0  0  0  0  0  0  0  0  0
    0.8477   -0.5053   28.6670 H   0  0  0  0  0  0  0  0  0  0  0  0
    2.2610   -2.9740   28.6308 H   0  0  0  0  0  0  0  0  0  0  0  0
    2.0909   -3.5343   26.9591 H   0  0  0  0  0  0  0  0  0  0  0  0
    0.6730   -2.8607   27.8089 H   0  0  0  0  0  0  0  0  0  0  0  0
  1  2  1  0
  2  3  1  0
  3  4  1  0
  4  5  1  0
  5  6  2  0
  5  7  1  0
  7  8  2  0
  8  9  1  0
  9 10  2  0
 10 11  1  0
  2 12  1  0
 12 13  1  0
 13 14  2  0
 13 15  1  0
 15 16  1  0
 16 17  2  0
 17 18  1  0
 18 19  2  0
 19 20  1  0
 20 21  1  0
 11  7  1  0
 20 16  1  0
  1 22  1  0
  1 23  1  0
  1 24  1  0
  2 25  1  0
  3 26  1  0
  3 27  1  0
  4 28  1  0
  8 29  1  0
 10 30  1  0
 12 31  1  0
 15 32  1  0
 15 33  1  0
 18 34  1  0
 19 35  1  0
 21 36  1  0
 21 37  1  0
 21 38  1  0
M  END
>  <Energy>  (1468) 
525.69798924754002

>  <compound_id>  (1468) 
46407

>  <target_id>  (1468) 
1

>  <reference_id>  (1468) 
63

>  <inspiration_ids>  (1468) 
[63, 7]

>  <energy_score>  (1468) 
473.57315342773114

>  <distance_score>  (1468) 
14.234884255428918

>  <path>  (1468) 
/opt/xchem-fragalysis-2/maxwin/BulkDock/SCRATCH/511021/C46407-P63/C46407-P63.minimised.mol

>  <scratch_subdir>  (1468) 
/opt/xchem-fragalysis-2/maxwin/BulkDock/SCRATCH/511021/C46407-P63

>  <fragmenstein_runtime>  (1468) 
16.74354577064514

>  <fragmenstein_outcome>  (1468) 
too moved

>  <fragmenstein_mode>  (1468) 
expansion

>  <fragmenstein_error>  (1468) 


$$$$
C46407-P7
     RDKit          3D

 38 39  0  0  0  0  0  0  0  0999 V2000
   -0.1804   -2.0164   30.8655 C   0  0  0  0  0  0  0  0  0  0  0  0
   -0.4225   -0.5539   30.4971 C   0  0  0  0  0  0  0  0  0  0  0  0
   -0.3477   -0.3517   28.9541 C   0  0  0  0  0  0  0  0  0  0  0  0
    0.9595   -0.5393   28.3187 N   0  0  0  0  0  0  0  0  0  0  0  0
    2.1752    0.2187   28.4229 C   0  0  0  0  0  0  0  0  0  0  0  0
    2.4545    1.1517   29.1166 O   0  0  0  0  0  0  0  0  0  0  0  0
    3.1876   -0.2186   27.4458 C   0  0  0  0  0  0  0  0  0  0  0  0
    4.4692    0.2378   27.1934 C   0  0  0  0  0  0  0  0  0  0  0  0
    5.0305   -0.4236   26.1353 N   0  0  0  0  0  0  0  0  0  0  0  0
    4.0844   -1.2524   25.7596 C   0  0  0  0  0  0  0  0  0  0  0  0
    2.9468   -1.2078   26.5191 O   0  0  0  0  0  0  0  0  0  0  0  0
   -1.7063   -0.1060   31.0841 N   0  0  0  0  0  0  0  0  0  0  0  0
   -2.0441    0.3002   32.4396 C   0  0  0  0  0  0  0  0  0  0  0  0
   -1.3494    0.4508   33.4076 O   0  0  0  0  0  0  0  0  0  0  0  0
   -3.5473    0.6850   32.5705 C   0  0  0  0  0  0  0  0  0  0  0  0
   -4.3648   -0.3617   33.2831 C   0  0  0  0  0  0  0  0  0  0  0  0
   -4.1282   -1.6592   33.2419 N   0  0  0  0  0  0  0  0  0  0  0  0
   -5.0457   -2.2509   34.0608 C   0  0  0  0  0  0  0  0  0  0  0  0
   -5.9413   -1.3295   34.5333 C   0  0  0  0  0  0  0  0  0  0  0  0
   -5.5059   -0.1308   34.0346 N   0  0  0  0  0  0  0  0  0  0  0  0
   -6.1873    1.1073   34.3162 C   0  0  0  0  0  0  0  0  0  0  0  0
   -0.9569   -2.6628   30.4412 H   0  0  0  0  0  0  0  0  0  0  0  0
    0.7916   -2.3618   30.4994 H   0  0  0  0  0  0  0  0  0  0  0  0
   -0.1976   -2.1528   31.9523 H   0  0  0  0  0  0  0  0  0  0  0  0
    0.3559    0.0497   30.9789 H   0  0  0  0  0  0  0  0  0  0  0  0
   -0.6496    0.6767   28.7234 H   0  0  0  0  0  0  0  0  0  0  0  0
   -1.0534   -1.0205   28.4485 H   0  0  0  0  0  0  0  0  0  0  0  0
    1.0533   -1.2148   27.5589 H   0  0  0  0  0  0  0  0  0  0  0  0
    4.9978    1.0164   27.7252 H   0  0  0  0  0  0  0  0  0  0  0  0
    4.0891   -1.9566   24.9398 H   0  0  0  0  0  0  0  0  0  0  0  0
   -2.5587   -0.2085   30.5477 H   0  0  0  0  0  0  0  0  0  0  0  0
   -3.5687    1.6284   33.1293 H   0  0  0  0  0  0  0  0  0  0  0  0
   -3.9730    0.9045   31.5887 H   0  0  0  0  0  0  0  0  0  0  0  0
   -5.0084   -3.3153   34.2495 H   0  0  0  0  0  0  0  0  0  0  0  0
   -6.8089   -1.4101   35.1715 H   0  0  0  0  0  0  0  0  0  0  0  0
   -7.2252    1.0095   33.9889 H   0  0  0  0  0  0  0  0  0  0  0  0
   -5.6956    1.9268   33.7927 H   0  0  0  0  0  0  0  0  0  0  0  0
   -6.1450    1.2853   35.3941 H   0  0  0  0  0  0  0  0  0  0  0  0
  1  2  1  0
  2  3  1  0
  3  4  1  0
  4  5  1  0
  5  6  2  0
  5  7  1  0
  7  8  2  0
  8  9  1  0
  9 10  2  0
 10 11  1  0
  2 12  1  0
 12 13  1  0
 13 14  2  0
 13 15  1  0
 15 16  1  0
 16 17  2  0
 17 18  1  0
 18 19  2  0
 19 20  1  0
 20 21  1  0
 11  7  1  0
 20 16  1  0
  1 22  1  0
  1 23  1  0
  1 24  1  0
  2 25  1  0
  3 26  1  0
  3 27  1  0
  4 28  1  0
  8 29  1  0
 10 30  1  0
 12 31  1  0
 15 32  1  0
 15 33  1  0
 18 34  1  0
 19 35  1  0
 21 36  1  0
 21 37  1  0
 21 38  1  0
M  END
>  <Energy>  (1469) 
28.824245638252581

>  <compound_id>  (1469) 
46407

>  <target_id>  (1469) 
1

>  <reference_id>  (1469) 
7

>  <inspiration_ids>  (1469) 
[63, 7]

>  <energy_score>  (1469) 
-23.300590181555236

>  <distance_score>  (1469) 
11.730858491450599

>  <path>  (1469) 
/opt/xchem-fragalysis-2/maxwin/BulkDock/SCRATCH/511021/C46407-P7/C46407-P7.minimised.mol

>  <scratch_subdir>  (1469) 
/opt/xchem-fragalysis-2/maxwin/BulkDock/SCRATCH/511021/C46407-P7

>  <fragmenstein_runtime>  (1469) 
12.856426477432251

>  <fragmenstein_outcome>  (1469) 
too moved

>  <fragmenstein_mode>  (1469) 
expansion

>  <fragmenstein_error>  (1469) 


$$$$
C11897-P63
     RDKit          3D

 45 47  0  0  0  0  0  0  0  0999 V2000
   -3.5348    0.5190   25.5846 C   0  0  0  0  0  0  0  0  0  0  0  0
   -2.9551   -1.2361   24.6330 C   0  0  0  0  0  0  0  0  0  0  0  0
   -3.4650   -2.2307   25.8863 C   0  0  0  0  0  0  0  0  0  0  0  0
   -3.0905   -1.7787   27.4778 N   0  0  0  0  0  0  0  0  0  0  0  0
   -2.0133   -2.2997   28.4491 C   0  0  0  0  0  0  0  0  0  0  0  0
   -1.1205   -3.1042   28.2776 O   0  0  0  0  0  0  0  0  0  0  0  0
   -2.0849   -1.8413   29.9561 C   0  0  0  0  0  0  0  0  0  0  0  0
   -2.4007   -0.6004   30.5345 C   0  0  0  0  0  0  0  0  0  0  0  0
   -2.7152   -0.4779   31.9050 C   0  0  0  0  0  0  0  0  0  0  0  0
   -2.6700   -1.6000   32.7045 C   0  0  0  0  0  0  0  0  0  0  0  0
   -2.2551   -2.7874   32.2407 N   0  0  0  0  0  0  0  0  0  0  0  0
   -1.9271   -2.8500   30.9110 C   0  0  0  0  0  0  0  0  0  0  0  0
   -2.0681   -1.1499   22.6989 N   0  0  0  0  0  0  0  0  0  0  0  0
   -0.3702   -1.9195   21.8847 C   0  0  0  0  0  0  0  0  0  0  0  0
    0.4208   -2.7102   22.3787 O   0  0  0  0  0  0  0  0  0  0  0  0
    0.4396   -1.1294   19.9246 C   0  0  0  0  0  0  0  0  0  0  0  0
    0.8702   -1.6637   18.1971 C   0  0  0  0  0  0  0  0  0  0  0  0
    0.8634   -2.8125   17.5467 N   0  0  0  0  0  0  0  0  0  0  0  0
    1.3144   -2.5570   16.2752 C   0  0  0  0  0  0  0  0  0  0  0  0
    1.5124   -1.2164   16.0940 C   0  0  0  0  0  0  0  0  0  0  0  0
    1.1917   -0.6537   17.2961 N   0  0  0  0  0  0  0  0  0  0  0  0
   -1.7301   -0.0731   25.8262 C   0  0  0  0  0  0  0  0  0  0  0  0
   -1.5951    0.4848   27.3470 C   0  0  0  0  0  0  0  0  0  0  0  0
   -0.5037   -0.3491   26.9062 C   0  0  0  0  0  0  0  0  0  0  0  0
   -3.1404    1.5306   25.2640 H   0  0  0  0  0  0  0  0  0  0  0  0
   -3.4236    0.6457   26.6611 H   0  0  0  0  0  0  0  0  0  0  0  0
   -4.6014    0.8287   25.4600 H   0  0  0  0  0  0  0  0  0  0  0  0
   -3.0737   -3.1646   25.5155 H   0  0  0  0  0  0  0  0  0  0  0  0
   -4.5370   -2.2243   25.9280 H   0  0  0  0  0  0  0  0  0  0  0  0
   -3.6122   -1.0670   27.9200 H   0  0  0  0  0  0  0  0  0  0  0  0
   -2.4886    0.3118   29.9636 H   0  0  0  0  0  0  0  0  0  0  0  0
   -3.0073    0.4816   32.3195 H   0  0  0  0  0  0  0  0  0  0  0  0
   -2.9263   -1.5635   33.7582 H   0  0  0  0  0  0  0  0  0  0  0  0
   -1.5128   -3.8110   30.6201 H   0  0  0  0  0  0  0  0  0  0  0  0
   -2.5779   -0.5741   22.0253 H   0  0  0  0  0  0  0  0  0  0  0  0
    1.4098   -0.6644   19.8557 H   0  0  0  0  0  0  0  0  0  0  0  0
   -0.1160   -0.6651   19.1484 H   0  0  0  0  0  0  0  0  0  0  0  0
    1.4423   -3.3537   15.5552 H   0  0  0  0  0  0  0  0  0  0  0  0
    1.8357   -0.6365   15.2425 H   0  0  0  0  0  0  0  0  0  0  0  0
    1.2007    0.3296   17.5275 H   0  0  0  0  0  0  0  0  0  0  0  0
   -1.5932    0.9494   25.4010 H   0  0  0  0  0  0  0  0  0  0  0  0
   -1.3687    1.5482   27.4638 H   0  0  0  0  0  0  0  0  0  0  0  0
   -2.2168    0.1862   28.1444 H   0  0  0  0  0  0  0  0  0  0  0  0
    0.4393    0.1970   26.8703 H   0  0  0  0  0  0  0  0  0  0  0  0
   -0.2928   -1.3096   27.3326 H   0  0  0  0  0  0  0  0  0  0  0  0
  1  2  1  0
  2  3  1  0
  3  4  1  0
  4  5  1  0
  5  6  2  0
  5  7  1  0
  7  8  2  0
  8  9  1  0
  9 10  2  0
 10 11  1  0
 11 12  2  0
  2 13  1  0
 13 14  1  0
 14 15  2  0
 14 16  1  0
 16 17  1  0
 17 18  2  0
 18 19  1  0
 19 20  2  0
 20 21  1  0
  2 22  1  0
 22 23  1  0
 23 24  1  0
 12  7  1  0
 21 17  1  0
 24 22  1  0
  1 25  1  0
  1 26  1  0
  1 27  1  0
  3 28  1  0
  3 29  1  0
  4 30  1  0
  8 31  1  0
  9 32  1  0
 10 33  1  0
 12 34  1  0
 13 35  1  0
 16 36  1  0
 16 37  1  0
 19 38  1  0
 20 39  1  0
 21 40  1  0
 22 41  1  0
 23 42  1  0
 23 43  1  0
 24 44  1  0
 24 45  1  0
M  END
>  <Energy>  (1470) 
1013.65407719546

>  <compound_id>  (1470) 
11897

>  <target_id>  (1470) 
1

>  <reference_id>  (1470) 
63

>  <inspiration_ids>  (1470) 
[63, 7]

>  <energy_score>  (1470) 
928.4723878758484

>  <distance_score>  (1470) 
11.550307635847506

>  <path>  (1470) 
/opt/xchem-fragalysis-2/maxwin/BulkDock/SCRATCH/511021/C11897-P63/C11897-P63.minimised.mol

>  <scratch_subdir>  (1470) 
/opt/xchem-fragalysis-2/maxwin/BulkDock/SCRATCH/511021/C11897-P63

>  <fragmenstein_runtime>  (1470) 
16.47259211540222

>  <fragmenstein_outcome>  (1470) 
too moved

>  <fragmenstein_mode>  (1470) 
expansion

>  <fragmenstein_error>  (1470) 


$$$$
C11897-P7
     RDKit          3D

 45 47  0  0  0  0  0  0  0  0999 V2000
    3.6806    0.3547   25.5201 C   0  0  0  0  0  0  0  0  0  0  0  0
    4.2976   -1.0526   25.4189 C   0  0  0  0  0  0  0  0  0  0  0  0
    3.3787   -2.1262   26.2080 C   0  0  0  0  0  0  0  0  0  0  0  0
    2.1502   -1.8313   27.0165 N   0  0  0  0  0  0  0  0  0  0  0  0
    1.9779   -1.0976   28.2491 C   0  0  0  0  0  0  0  0  0  0  0  0
    2.7629   -0.4678   28.9008 O   0  0  0  0  0  0  0  0  0  0  0  0
    0.5973   -1.2119   28.9065 C   0  0  0  0  0  0  0  0  0  0  0  0
    0.0467   -0.1180   29.5994 C   0  0  0  0  0  0  0  0  0  0  0  0
   -1.1238   -0.2534   30.3661 C   0  0  0  0  0  0  0  0  0  0  0  0
   -1.7164   -1.5000   30.4491 C   0  0  0  0  0  0  0  0  0  0  0  0
   -1.2339   -2.5837   29.8079 N   0  0  0  0  0  0  0  0  0  0  0  0
   -0.0956   -2.4121   29.0589 C   0  0  0  0  0  0  0  0  0  0  0  0
    4.9060   -1.8062   23.9924 N   0  0  0  0  0  0  0  0  0  0  0  0
    4.9977   -1.2545   22.3886 C   0  0  0  0  0  0  0  0  0  0  0  0
    4.5483   -0.2043   21.9245 O   0  0  0  0  0  0  0  0  0  0  0  0
    5.9567   -2.1067   21.1220 C   0  0  0  0  0  0  0  0  0  0  0  0
    7.0883   -0.7486   20.2276 C   0  0  0  0  0  0  0  0  0  0  0  0
    7.7910   -0.8639   19.1115 N   0  0  0  0  0  0  0  0  0  0  0  0
    7.5749    0.1384   18.0603 C   0  0  0  0  0  0  0  0  0  0  0  0
    7.3547    1.2497   18.7576 C   0  0  0  0  0  0  0  0  0  0  0  0
    7.4278    0.5891   20.3072 N   0  0  0  0  0  0  0  0  0  0  0  0
    5.6394   -1.0355   26.3452 C   0  0  0  0  0  0  0  0  0  0  0  0
    6.0470    0.0406   27.3608 C   0  0  0  0  0  0  0  0  0  0  0  0
    5.7152   -1.3246   27.8450 C   0  0  0  0  0  0  0  0  0  0  0  0
    4.2967    1.0448   26.0857 H   0  0  0  0  0  0  0  0  0  0  0  0
    2.7800    0.3521   26.1310 H   0  0  0  0  0  0  0  0  0  0  0  0
    3.4326    0.9032   24.6240 H   0  0  0  0  0  0  0  0  0  0  0  0
    3.0949   -2.8629   25.4601 H   0  0  0  0  0  0  0  0  0  0  0  0
    3.9818   -2.7090   26.9019 H   0  0  0  0  0  0  0  0  0  0  0  0
    1.2895   -2.3110   26.7950 H   0  0  0  0  0  0  0  0  0  0  0  0
    0.5600    0.8418   29.5698 H   0  0  0  0  0  0  0  0  0  0  0  0
   -1.5336    0.5939   30.9046 H   0  0  0  0  0  0  0  0  0  0  0  0
   -2.6036   -1.6659   31.0511 H   0  0  0  0  0  0  0  0  0  0  0  0
    0.2758   -3.3303   28.6112 H   0  0  0  0  0  0  0  0  0  0  0  0
    5.4239   -2.6270   24.0834 H   0  0  0  0  0  0  0  0  0  0  0  0
    6.5443   -2.9916   21.1177 H   0  0  0  0  0  0  0  0  0  0  0  0
    5.3234   -2.7638   20.4853 H   0  0  0  0  0  0  0  0  0  0  0  0
    7.8516    0.0092   17.0196 H   0  0  0  0  0  0  0  0  0  0  0  0
    7.4727    2.3233   18.6768 H   0  0  0  0  0  0  0  0  0  0  0  0
    7.3627    1.3063   21.0256 H   0  0  0  0  0  0  0  0  0  0  0  0
    6.4430   -1.5489   25.8341 H   0  0  0  0  0  0  0  0  0  0  0  0
    7.0886    0.3425   27.3790 H   0  0  0  0  0  0  0  0  0  0  0  0
    5.3753    0.8128   27.7135 H   0  0  0  0  0  0  0  0  0  0  0  0
    6.5288   -1.9583   28.1836 H   0  0  0  0  0  0  0  0  0  0  0  0
    4.8286   -1.4284   28.4495 H   0  0  0  0  0  0  0  0  0  0  0  0
  1  2  1  0
  2  3  1  0
  3  4  1  0
  4  5  1  0
  5  6  2  0
  5  7  1  0
  7  8  2  0
  8  9  1  0
  9 10  2  0
 10 11  1  0
 11 12  2  0
  2 13  1  0
 13 14  1  0
 14 15  2  0
 14 16  1  0
 16 17  1  0
 17 18  2  0
 18 19  1  0
 19 20  2  0
 20 21  1  0
  2 22  1  0
 22 23  1  0
 23 24  1  0
 12  7  1  0
 21 17  1  0
 24 22  1  0
  1 25  1  0
  1 26  1  0
  1 27  1  0
  3 28  1  0
  3 29  1  0
  4 30  1  0
  8 31  1  0
  9 32  1  0
 10 33  1  0
 12 34  1  0
 13 35  1  0
 16 36  1  0
 16 37  1  0
 19 38  1  0
 20 39  1  0
 21 40  1  0
 22 41  1  0
 23 42  1  0
 23 43  1  0
 24 44  1  0
 24 45  1  0
M  END
>  <Energy>  (1471) 
333.68813830143665

>  <compound_id>  (1471) 
11897

>  <target_id>  (1471) 
1

>  <reference_id>  (1471) 
7

>  <inspiration_ids>  (1471) 
[63, 7]

>  <energy_score>  (1471) 
248.5064489818219

>  <distance_score>  (1471) 
11.404818959976309

>  <path>  (1471) 
/opt/xchem-fragalysis-2/maxwin/BulkDock/SCRATCH/511021/C11897-P7/C11897-P7.minimised.mol

>  <scratch_subdir>  (1471) 
/opt/xchem-fragalysis-2/maxwin/BulkDock/SCRATCH/511021/C11897-P7

>  <fragmenstein_runtime>  (1471) 
21.30798363685608

>  <fragmenstein_outcome>  (1471) 
too moved

>  <fragmenstein_mode>  (1471) 
expansion

>  <fragmenstein_error>  (1471) 


$$$$
C8991-P63
     RDKit          3D

 42 44  0  0  0  0  0  0  0  0999 V2000
   -4.5940    0.3580   21.1206 C   0  0  0  0  0  0  0  0  0  0  0  0
   -3.6925    0.3065   22.3659 C   0  0  0  0  0  0  0  0  0  0  0  0
   -2.4962   -0.6875   22.0763 C   0  0  0  0  0  0  0  0  0  0  0  0
   -1.3217   -0.3947   21.2596 N   0  0  0  0  0  0  0  0  0  0  0  0
   -1.1354   -0.4134   19.8420 C   0  0  0  0  0  0  0  0  0  0  0  0
   -1.9155   -0.5962   18.9549 O   0  0  0  0  0  0  0  0  0  0  0  0
    0.3298   -0.2649   19.5081 C   0  0  0  0  0  0  0  0  0  0  0  0
    0.8596   -0.3810   18.2270 C   0  0  0  0  0  0  0  0  0  0  0  0
    2.5759   -0.2671   18.2463 S   0  0  0  0  0  0  0  0  0  0  0  0
    2.5151   -0.0739   19.9475 C   0  0  0  0  0  0  0  0  0  0  0  0
    1.3155   -0.0720   20.4958 N   0  0  0  0  0  0  0  0  0  0  0  0
   -4.4809   -0.2941   23.5054 N   0  0  0  0  0  0  0  0  0  0  0  0
   -5.5139    0.2861   24.3714 C   0  0  0  0  0  0  0  0  0  0  0  0
   -5.9352    1.4077   24.4428 O   0  0  0  0  0  0  0  0  0  0  0  0
   -6.0000   -0.8149   25.3461 C   0  0  0  0  0  0  0  0  0  0  0  0
   -7.0665   -0.4501   26.3541 C   0  0  0  0  0  0  0  0  0  0  0  0
   -7.8675   -1.3174   26.9528 N   0  0  0  0  0  0  0  0  0  0  0  0
   -8.6770   -0.5840   27.7815 C   0  0  0  0  0  0  0  0  0  0  0  0
   -8.3329    0.7433   27.7453 C   0  0  0  0  0  0  0  0  0  0  0  0
   -7.3164    0.8187   26.8291 N   0  0  0  0  0  0  0  0  0  0  0  0
   -3.3311    1.7281   22.7708 C   0  0  0  0  0  0  0  0  0  0  0  0
   -1.9661    2.3716   22.7169 C   0  0  0  0  0  0  0  0  0  0  0  0
   -2.5753    2.0237   24.0462 C   0  0  0  0  0  0  0  0  0  0  0  0
   -4.0708    0.8172   20.2751 H   0  0  0  0  0  0  0  0  0  0  0  0
   -5.5003    0.9466   21.3063 H   0  0  0  0  0  0  0  0  0  0  0  0
   -4.9198   -0.6445   20.8214 H   0  0  0  0  0  0  0  0  0  0  0  0
   -2.9174   -1.6122   21.6592 H   0  0  0  0  0  0  0  0  0  0  0  0
   -2.0841   -0.9754   23.0422 H   0  0  0  0  0  0  0  0  0  0  0  0
   -0.4144   -0.2910   21.7113 H   0  0  0  0  0  0  0  0  0  0  0  0
    0.3198   -0.5473   17.3047 H   0  0  0  0  0  0  0  0  0  0  0  0
    3.4156    0.0394   20.5371 H   0  0  0  0  0  0  0  0  0  0  0  0
   -4.4415   -1.2952   23.6604 H   0  0  0  0  0  0  0  0  0  0  0  0
   -5.1270   -1.1798   25.9010 H   0  0  0  0  0  0  0  0  0  0  0  0
   -6.3907   -1.6378   24.7353 H   0  0  0  0  0  0  0  0  0  0  0  0
   -9.4671   -1.0586   28.3437 H   0  0  0  0  0  0  0  0  0  0  0  0
   -8.7282    1.6167   28.2428 H   0  0  0  0  0  0  0  0  0  0  0  0
   -6.8590    1.6576   26.4906 H   0  0  0  0  0  0  0  0  0  0  0  0
   -4.1733    2.3949   22.5847 H   0  0  0  0  0  0  0  0  0  0  0  0
   -1.0975    1.8227   22.3902 H   0  0  0  0  0  0  0  0  0  0  0  0
   -1.9229    3.4215   22.4419 H   0  0  0  0  0  0  0  0  0  0  0  0
   -2.1840    1.1925   24.6161 H   0  0  0  0  0  0  0  0  0  0  0  0
   -2.9463    2.8337   24.6659 H   0  0  0  0  0  0  0  0  0  0  0  0
  1  2  1  0
  2  3  1  0
  3  4  1  0
  4  5  1  0
  5  6  2  0
  5  7  1  0
  7  8  2  0
  8  9  1  0
  9 10  1  0
 10 11  2  0
  2 12  1  0
 12 13  1  0
 13 14  2  0
 13 15  1  0
 15 16  1  0
 16 17  2  0
 17 18  1  0
 18 19  2  0
 19 20  1  0
  2 21  1  0
 21 22  1  0
 22 23  1  0
 11  7  1  0
 20 16  1  0
 23 21  1  0
  1 24  1  0
  1 25  1  0
  1 26  1  0
  3 27  1  0
  3 28  1  0
  4 29  1  0
  8 30  1  0
 10 31  1  0
 12 32  1  0
 15 33  1  0
 15 34  1  0
 18 35  1  0
 19 36  1  0
 20 37  1  0
 21 38  1  0
 22 39  1  0
 22 40  1  0
 23 41  1  0
 23 42  1  0
M  END
>  <Energy>  (1472) 
67.033660683238807

>  <compound_id>  (1472) 
8991

>  <target_id>  (1472) 
1

>  <reference_id>  (1472) 
63

>  <inspiration_ids>  (1472) 
[63, 7]

>  <energy_score>  (1472) 
-87.48650690170473

>  <distance_score>  (1472) 
13.224905146982094

>  <path>  (1472) 
/opt/xchem-fragalysis-2/maxwin/BulkDock/SCRATCH/511021/C8991-P63/C8991-P63.minimised.mol

>  <scratch_subdir>  (1472) 
/opt/xchem-fragalysis-2/maxwin/BulkDock/SCRATCH/511021/C8991-P63

>  <fragmenstein_runtime>  (1472) 
14.671014308929443

>  <fragmenstein_outcome>  (1472) 
too moved

>  <fragmenstein_mode>  (1472) 
expansion

>  <fragmenstein_error>  (1472) 


$$$$
C8991-P7
     RDKit          3D

 42 44  0  0  0  0  0  0  0  0999 V2000
    4.7613   -3.9148   23.7144 C   0  0  0  0  0  0  0  0  0  0  0  0
    5.6649   -2.7481   24.1506 C   0  0  0  0  0  0  0  0  0  0  0  0
    6.2850   -2.1922   22.7949 C   0  0  0  0  0  0  0  0  0  0  0  0
    7.4597   -2.8192   22.1148 N   0  0  0  0  0  0  0  0  0  0  0  0
    7.5589   -4.0351   21.2647 C   0  0  0  0  0  0  0  0  0  0  0  0
    6.7299   -4.8602   20.9830 O   0  0  0  0  0  0  0  0  0  0  0  0
    9.1775   -4.1368   20.4823 C   0  0  0  0  0  0  0  0  0  0  0  0
   10.0848   -5.3344   20.1570 C   0  0  0  0  0  0  0  0  0  0  0  0
   12.0882   -5.3123   20.4827 S   0  0  0  0  0  0  0  0  0  0  0  0
   12.0228   -3.7622   21.0463 C   0  0  0  0  0  0  0  0  0  0  0  0
   10.7298   -3.2912   21.0890 N   0  0  0  0  0  0  0  0  0  0  0  0
    4.7713   -1.7437   24.8835 N   0  0  0  0  0  0  0  0  0  0  0  0
    4.0126   -1.8648   26.1512 C   0  0  0  0  0  0  0  0  0  0  0  0
    3.9757   -2.7542   26.9573 O   0  0  0  0  0  0  0  0  0  0  0  0
    3.1876   -0.5845   26.4907 C   0  0  0  0  0  0  0  0  0  0  0  0
    2.0353   -0.7349   27.5291 C   0  0  0  0  0  0  0  0  0  0  0  0
    1.5047    0.2453   28.2556 N   0  0  0  0  0  0  0  0  0  0  0  0
    0.4438   -0.2958   28.9518 C   0  0  0  0  0  0  0  0  0  0  0  0
    0.3105   -1.6273   28.6573 C   0  0  0  0  0  0  0  0  0  0  0  0
    1.3259   -1.8968   27.7709 N   0  0  0  0  0  0  0  0  0  0  0  0
    6.8454   -3.1901   25.0122 C   0  0  0  0  0  0  0  0  0  0  0  0
    7.0887   -2.8702   26.4737 C   0  0  0  0  0  0  0  0  0  0  0  0
    7.9061   -2.1849   25.4241 C   0  0  0  0  0  0  0  0  0  0  0  0
    4.0837   -3.6096   22.9075 H   0  0  0  0  0  0  0  0  0  0  0  0
    5.3395   -4.7740   23.3605 H   0  0  0  0  0  0  0  0  0  0  0  0
    4.1060   -4.2478   24.5163 H   0  0  0  0  0  0  0  0  0  0  0  0
    5.4991   -2.1174   22.0332 H   0  0  0  0  0  0  0  0  0  0  0  0
    6.6114   -1.1607   22.9811 H   0  0  0  0  0  0  0  0  0  0  0  0
    8.3630   -2.4061   22.2006 H   0  0  0  0  0  0  0  0  0  0  0  0
    9.6876   -5.9572   19.4296 H   0  0  0  0  0  0  0  0  0  0  0  0
   12.8902   -3.2071   21.3787 H   0  0  0  0  0  0  0  0  0  0  0  0
    4.6262   -0.8199   24.4968 H   0  0  0  0  0  0  0  0  0  0  0  0
    3.8980    0.1456   26.8975 H   0  0  0  0  0  0  0  0  0  0  0  0
    2.7804   -0.1678   25.5692 H   0  0  0  0  0  0  0  0  0  0  0  0
   -0.1631    0.3095   29.6113 H   0  0  0  0  0  0  0  0  0  0  0  0
   -0.3941   -2.3856   28.9658 H   0  0  0  0  0  0  0  0  0  0  0  0
    1.5105   -2.7760   27.3050 H   0  0  0  0  0  0  0  0  0  0  0  0
    7.2328   -4.1431   24.6564 H   0  0  0  0  0  0  0  0  0  0  0  0
    7.5662   -3.6343   27.0781 H   0  0  0  0  0  0  0  0  0  0  0  0
    6.4129   -2.2491   27.0434 H   0  0  0  0  0  0  0  0  0  0  0  0
    8.9473   -2.4716   25.3288 H   0  0  0  0  0  0  0  0  0  0  0  0
    7.7242   -1.1269   25.2741 H   0  0  0  0  0  0  0  0  0  0  0  0
  1  2  1  0
  2  3  1  0
  3  4  1  0
  4  5  1  0
  5  6  2  0
  5  7  1  0
  7  8  2  0
  8  9  1  0
  9 10  1  0
 10 11  2  0
  2 12  1  0
 12 13  1  0
 13 14  2  0
 13 15  1  0
 15 16  1  0
 16 17  2  0
 17 18  1  0
 18 19  2  0
 19 20  1  0
  2 21  1  0
 21 22  1  0
 22 23  1  0
 11  7  1  0
 20 16  1  0
 23 21  1  0
  1 24  1  0
  1 25  1  0
  1 26  1  0
  3 27  1  0
  3 28  1  0
  4 29  1  0
  8 30  1  0
 10 31  1  0
 12 32  1  0
 15 33  1  0
 15 34  1  0
 18 35  1  0
 19 36  1  0
 20 37  1  0
 21 38  1  0
 22 39  1  0
 22 40  1  0
 23 41  1  0
 23 42  1  0
M  END
>  <Energy>  (1473) 
234.76128475827446

>  <compound_id>  (1473) 
8991

>  <target_id>  (1473) 
1

>  <reference_id>  (1473) 
7

>  <inspiration_ids>  (1473) 
[63, 7]

>  <energy_score>  (1473) 
80.24111717333358

>  <distance_score>  (1473) 
14.846166450010532

>  <path>  (1473) 
/opt/xchem-fragalysis-2/maxwin/BulkDock/SCRATCH/511021/C8991-P7/C8991-P7.minimised.mol

>  <scratch_subdir>  (1473) 
/opt/xchem-fragalysis-2/maxwin/BulkDock/SCRATCH/511021/C8991-P7

>  <fragmenstein_runtime>  (1473) 
13.53930926322937

>  <fragmenstein_outcome>  (1473) 
too moved

>  <fragmenstein_mode>  (1473) 
expansion

>  <fragmenstein_error>  (1473) 


$$$$
C9626-P63
     RDKit          3D

 45 47  0  0  0  0  0  0  0  0999 V2000
   -0.6545    2.0518   30.7932 C   0  0  0  0  0  0  0  0  0  0  0  0
   -0.8197    0.9219   29.7579 C   0  0  0  0  0  0  0  0  0  0  0  0
   -0.9714   -0.4569   30.4966 C   0  0  0  0  0  0  0  0  0  0  0  0
   -2.1786   -0.5782   31.3275 N   0  0  0  0  0  0  0  0  0  0  0  0
   -2.4047   -0.2683   32.7084 C   0  0  0  0  0  0  0  0  0  0  0  0
   -1.6480    0.0955   33.5617 O   0  0  0  0  0  0  0  0  0  0  0  0
   -3.8611   -0.4659   33.1268 C   0  0  0  0  0  0  0  0  0  0  0  0
   -4.2430   -0.2167   34.4463 C   0  0  0  0  0  0  0  0  0  0  0  0
   -5.5823   -0.3815   34.8107 C   0  0  0  0  0  0  0  0  0  0  0  0
   -6.4997   -0.7853   33.8506 C   0  0  0  0  0  0  0  0  0  0  0  0
   -6.0383   -1.0103   32.5605 C   0  0  0  0  0  0  0  0  0  0  0  0
   -4.7436   -0.8714   32.1696 N   0  0  0  0  0  0  0  0  0  0  0  0
    0.3484    0.9903   28.8520 N   0  0  0  0  0  0  0  0  0  0  0  0
    1.7413    0.6466   29.0672 C   0  0  0  0  0  0  0  0  0  0  0  0
    2.2862    0.1437   30.0102 O   0  0  0  0  0  0  0  0  0  0  0  0
    2.5914    1.1381   27.8701 C   0  0  0  0  0  0  0  0  0  0  0  0
    3.4838    0.0996   27.2798 C   0  0  0  0  0  0  0  0  0  0  0  0
    3.2665   -0.5421   26.1549 N   0  0  0  0  0  0  0  0  0  0  0  0
    4.3443   -1.3558   25.9577 C   0  0  0  0  0  0  0  0  0  0  0  0
    5.2663   -1.1704   26.9596 C   0  0  0  0  0  0  0  0  0  0  0  0
    4.7098   -0.2447   27.7930 N   0  0  0  0  0  0  0  0  0  0  0  0
   -2.1056    1.1864   28.9564 C   0  0  0  0  0  0  0  0  0  0  0  0
   -2.3270    0.5590   27.5993 C   0  0  0  0  0  0  0  0  0  0  0  0
   -2.2078    2.0550   27.7193 C   0  0  0  0  0  0  0  0  0  0  0  0
   -1.5366    2.1548   31.4334 H   0  0  0  0  0  0  0  0  0  0  0  0
   -0.5085    3.0184   30.2957 H   0  0  0  0  0  0  0  0  0  0  0  0
    0.2166    1.8787   31.4349 H   0  0  0  0  0  0  0  0  0  0  0  0
   -0.1082   -0.6303   31.1483 H   0  0  0  0  0  0  0  0  0  0  0  0
   -1.0137   -1.2715   29.7650 H   0  0  0  0  0  0  0  0  0  0  0  0
   -3.0430   -0.9368   30.9223 H   0  0  0  0  0  0  0  0  0  0  0  0
   -3.5087    0.1030   35.1801 H   0  0  0  0  0  0  0  0  0  0  0  0
   -5.8957   -0.1929   35.8335 H   0  0  0  0  0  0  0  0  0  0  0  0
   -7.5459   -0.9247   34.0949 H   0  0  0  0  0  0  0  0  0  0  0  0
   -6.7250   -1.3222   31.7767 H   0  0  0  0  0  0  0  0  0  0  0  0
    0.2612    1.4759   27.9723 H   0  0  0  0  0  0  0  0  0  0  0  0
    3.1909    1.9820   28.2339 H   0  0  0  0  0  0  0  0  0  0  0  0
    1.9610    1.5397   27.0695 H   0  0  0  0  0  0  0  0  0  0  0  0
    4.3944   -2.0147   25.1013 H   0  0  0  0  0  0  0  0  0  0  0  0
    6.2305   -1.6170   27.1497 H   0  0  0  0  0  0  0  0  0  0  0  0
    5.0993    0.0933   28.6618 H   0  0  0  0  0  0  0  0  0  0  0  0
   -2.9687    1.2306   29.6183 H   0  0  0  0  0  0  0  0  0  0  0  0
   -3.3045    0.1306   27.4064 H   0  0  0  0  0  0  0  0  0  0  0  0
   -1.5103    0.0045   27.1517 H   0  0  0  0  0  0  0  0  0  0  0  0
   -1.3321    2.5460   27.3172 H   0  0  0  0  0  0  0  0  0  0  0  0
   -3.1118    2.6448   27.5991 H   0  0  0  0  0  0  0  0  0  0  0  0
  1  2  1  0
  2  3  1  0
  3  4  1  0
  4  5  1  0
  5  6  2  0
  5  7  1  0
  7  8  2  0
  8  9  1  0
  9 10  2  0
 10 11  1  0
 11 12  2  0
  2 13  1  0
 13 14  1  0
 14 15  2  0
 14 16  1  0
 16 17  1  0
 17 18  2  0
 18 19  1  0
 19 20  2  0
 20 21  1  0
  2 22  1  0
 22 23  1  0
 23 24  1  0
 12  7  1  0
 21 17  1  0
 24 22  1  0
  1 25  1  0
  1 26  1  0
  1 27  1  0
  3 28  1  0
  3 29  1  0
  4 30  1  0
  8 31  1  0
  9 32  1  0
 10 33  1  0
 11 34  1  0
 13 35  1  0
 16 36  1  0
 16 37  1  0
 19 38  1  0
 20 39  1  0
 21 40  1  0
 22 41  1  0
 23 42  1  0
 23 43  1  0
 24 44  1  0
 24 45  1  0
M  END
>  <Energy>  (1474) 
86.312570852842299

>  <compound_id>  (1474) 
9626

>  <target_id>  (1474) 
1

>  <reference_id>  (1474) 
63

>  <inspiration_ids>  (1474) 
[63, 7]

>  <energy_score>  (1474) 
-38.26015095477004

>  <distance_score>  (1474) 
11.999348590640388

>  <path>  (1474) 
/opt/xchem-fragalysis-2/maxwin/BulkDock/SCRATCH/511021/C9626-P63/C9626-P63.minimised.mol

>  <scratch_subdir>  (1474) 
/opt/xchem-fragalysis-2/maxwin/BulkDock/SCRATCH/511021/C9626-P63

>  <fragmenstein_runtime>  (1474) 
19.40122389793396

>  <fragmenstein_outcome>  (1474) 
too moved

>  <fragmenstein_mode>  (1474) 
expansion

>  <fragmenstein_error>  (1474) 


$$$$
C9626-P7
     RDKit          3D

 45 47  0  0  0  0  0  0  0  0999 V2000
   -1.3729   -9.1722   22.1430 C   0  0  0  0  0  0  0  0  0  0  0  0
   -2.4756   -9.7106   21.2159 C   0  0  0  0  0  0  0  0  0  0  0  0
   -3.1836  -10.8885   22.0325 C   0  0  0  0  0  0  0  0  0  0  0  0
   -3.9602  -10.4285   23.2394 N   0  0  0  0  0  0  0  0  0  0  0  0
   -5.3824  -10.2652   23.4467 C   0  0  0  0  0  0  0  0  0  0  0  0
   -6.3124  -10.5304   22.7349 O   0  0  0  0  0  0  0  0  0  0  0  0
   -5.7974   -9.6055   24.7997 C   0  0  0  0  0  0  0  0  0  0  0  0
   -7.0404   -8.9641   24.8832 C   0  0  0  0  0  0  0  0  0  0  0  0
   -7.4641   -8.3897   26.0974 C   0  0  0  0  0  0  0  0  0  0  0  0
   -6.6523   -8.4870   27.2180 C   0  0  0  0  0  0  0  0  0  0  0  0
   -5.4393   -9.1441   27.0642 C   0  0  0  0  0  0  0  0  0  0  0  0
   -4.9779   -9.6781   25.8912 N   0  0  0  0  0  0  0  0  0  0  0  0
   -1.8268   -9.9933   19.8895 N   0  0  0  0  0  0  0  0  0  0  0  0
   -0.4092  -10.1180   19.5171 C   0  0  0  0  0  0  0  0  0  0  0  0
    0.5822  -10.1054   20.1957 O   0  0  0  0  0  0  0  0  0  0  0  0
   -0.2329  -10.1712   17.9712 C   0  0  0  0  0  0  0  0  0  0  0  0
    1.0721   -9.5444   17.4533 C   0  0  0  0  0  0  0  0  0  0  0  0
    1.2113   -8.7523   16.3991 N   0  0  0  0  0  0  0  0  0  0  0  0
    2.5649   -8.5637   16.2208 C   0  0  0  0  0  0  0  0  0  0  0  0
    3.2725   -9.2515   17.1723 C   0  0  0  0  0  0  0  0  0  0  0  0
    2.3193   -9.8486   17.9564 N   0  0  0  0  0  0  0  0  0  0  0  0
   -3.5833   -8.6700   20.9460 C   0  0  0  0  0  0  0  0  0  0  0  0
   -3.8656   -7.9550   19.6328 C   0  0  0  0  0  0  0  0  0  0  0  0
   -4.7763   -9.0504   20.0824 C   0  0  0  0  0  0  0  0  0  0  0  0
   -1.7539   -8.7233   23.0520 H   0  0  0  0  0  0  0  0  0  0  0  0
   -0.7113   -9.9883   22.4514 H   0  0  0  0  0  0  0  0  0  0  0  0
   -0.7442   -8.4253   21.6570 H   0  0  0  0  0  0  0  0  0  0  0  0
   -3.8897  -11.4159   21.3822 H   0  0  0  0  0  0  0  0  0  0  0  0
   -2.4418  -11.6143   22.3818 H   0  0  0  0  0  0  0  0  0  0  0  0
   -3.4599  -10.0146   24.0273 H   0  0  0  0  0  0  0  0  0  0  0  0
   -7.6854   -8.9186   24.0091 H   0  0  0  0  0  0  0  0  0  0  0  0
   -8.4347   -7.9038   26.1545 H   0  0  0  0  0  0  0  0  0  0  0  0
   -6.9643   -8.0955   28.1792 H   0  0  0  0  0  0  0  0  0  0  0  0
   -4.7705   -9.2807   27.9117 H   0  0  0  0  0  0  0  0  0  0  0  0
   -2.3995  -10.1312   19.0664 H   0  0  0  0  0  0  0  0  0  0  0  0
   -1.0653   -9.6454   17.4902 H   0  0  0  0  0  0  0  0  0  0  0  0
   -0.2655  -11.2231   17.6673 H   0  0  0  0  0  0  0  0  0  0  0  0
    2.9443   -7.9456   15.4176 H   0  0  0  0  0  0  0  0  0  0  0  0
    4.3292   -9.3574   17.3679 H   0  0  0  0  0  0  0  0  0  0  0  0
    2.4704  -10.4245   18.7739 H   0  0  0  0  0  0  0  0  0  0  0  0
   -3.8418   -8.1394   21.8561 H   0  0  0  0  0  0  0  0  0  0  0  0
   -3.2422   -8.1272   18.7650 H   0  0  0  0  0  0  0  0  0  0  0  0
   -4.2337   -6.9353   19.6886 H   0  0  0  0  0  0  0  0  0  0  0  0
   -5.7625   -8.7855   20.4501 H   0  0  0  0  0  0  0  0  0  0  0  0
   -4.7615   -9.9853   19.5350 H   0  0  0  0  0  0  0  0  0  0  0  0
  1  2  1  0
  2  3  1  0
  3  4  1  0
  4  5  1  0
  5  6  2  0
  5  7  1  0
  7  8  2  0
  8  9  1  0
  9 10  2  0
 10 11  1  0
 11 12  2  0
  2 13  1  0
 13 14  1  0
 14 15  2  0
 14 16  1  0
 16 17  1  0
 17 18  2  0
 18 19  1  0
 19 20  2  0
 20 21  1  0
  2 22  1  0
 22 23  1  0
 23 24  1  0
 12  7  1  0
 21 17  1  0
 24 22  1  0
  1 25  1  0
  1 26  1  0
  1 27  1  0
  3 28  1  0
  3 29  1  0
  4 30  1  0
  8 31  1  0
  9 32  1  0
 10 33  1  0
 11 34  1  0
 13 35  1  0
 16 36  1  0
 16 37  1  0
 19 38  1  0
 20 39  1  0
 21 40  1  0
 22 41  1  0
 23 42  1  0
 23 43  1  0
 24 44  1  0
 24 45  1  0
M  END
>  <Energy>  (1475) 
105.8626885848637

>  <compound_id>  (1475) 
9626

>  <target_id>  (1475) 
1

>  <reference_id>  (1475) 
7

>  <inspiration_ids>  (1475) 
[63, 7]

>  <energy_score>  (1475) 
-18.710033222746915

>  <distance_score>  (1475) 
15.307344762122925

>  <path>  (1475) 
/opt/xchem-fragalysis-2/maxwin/BulkDock/SCRATCH/511021/C9626-P7/C9626-P7.minimised.mol

>  <scratch_subdir>  (1475) 
/opt/xchem-fragalysis-2/maxwin/BulkDock/SCRATCH/511021/C9626-P7

>  <fragmenstein_runtime>  (1475) 
18.324378490447998

>  <fragmenstein_outcome>  (1475) 
too moved

>  <fragmenstein_mode>  (1475) 
expansion

>  <fragmenstein_error>  (1475) 


$$$$
C11945-P63
     RDKit          3D

 45 47  0  0  0  0  0  0  0  0999 V2000
   -7.8640   -6.6005   28.1326 C   0  0  0  0  0  0  0  0  0  0  0  0
   -6.7476   -6.5689   29.2689 C   0  0  0  0  0  0  0  0  0  0  0  0
   -6.5248   -4.6269   29.4681 C   0  0  0  0  0  0  0  0  0  0  0  0
   -5.6885   -3.7291   30.7237 N   0  0  0  0  0  0  0  0  0  0  0  0
   -6.0267   -2.5196   31.3991 C   0  0  0  0  0  0  0  0  0  0  0  0
   -6.9226   -1.7643   31.2312 O   0  0  0  0  0  0  0  0  0  0  0  0
   -5.2068   -2.1001   32.5688 C   0  0  0  0  0  0  0  0  0  0  0  0
   -5.9035   -1.5357   33.6553 C   0  0  0  0  0  0  0  0  0  0  0  0
   -5.1809   -1.0424   34.7175 C   0  0  0  0  0  0  0  0  0  0  0  0
   -3.8362   -1.0835   34.7683 N   0  0  0  0  0  0  0  0  0  0  0  0
   -3.1879   -1.5964   33.6922 C   0  0  0  0  0  0  0  0  0  0  0  0
   -3.8185   -2.1050   32.5687 C   0  0  0  0  0  0  0  0  0  0  0  0
   -5.6593   -7.5958   28.5266 N   0  0  0  0  0  0  0  0  0  0  0  0
   -4.5829   -8.4658   29.0957 C   0  0  0  0  0  0  0  0  0  0  0  0
   -4.2002   -8.5976   30.2284 O   0  0  0  0  0  0  0  0  0  0  0  0
   -3.7881   -9.2340   27.9807 C   0  0  0  0  0  0  0  0  0  0  0  0
   -2.5017   -8.5936   27.4072 C   0  0  0  0  0  0  0  0  0  0  0  0
   -2.0771   -7.3418   27.4343 N   0  0  0  0  0  0  0  0  0  0  0  0
   -0.9371   -7.2815   26.6595 C   0  0  0  0  0  0  0  0  0  0  0  0
   -0.6593   -8.5078   26.1186 C   0  0  0  0  0  0  0  0  0  0  0  0
   -1.6228   -9.3349   26.6241 N   0  0  0  0  0  0  0  0  0  0  0  0
   -7.4352   -7.4258   30.4100 C   0  0  0  0  0  0  0  0  0  0  0  0
   -7.2089   -8.8947   30.7351 C   0  0  0  0  0  0  0  0  0  0  0  0
   -6.8054   -7.8381   31.7207 C   0  0  0  0  0  0  0  0  0  0  0  0
   -8.7819   -6.0452   28.3302 H   0  0  0  0  0  0  0  0  0  0  0  0
   -8.1679   -7.6345   27.9210 H   0  0  0  0  0  0  0  0  0  0  0  0
   -7.4604   -6.2026   27.2068 H   0  0  0  0  0  0  0  0  0  0  0  0
   -5.9326   -4.3213   28.6298 H   0  0  0  0  0  0  0  0  0  0  0  0
   -7.4571   -4.0809   29.2923 H   0  0  0  0  0  0  0  0  0  0  0  0
   -4.9052   -4.1542   31.1899 H   0  0  0  0  0  0  0  0  0  0  0  0
   -6.9865   -1.4609   33.6470 H   0  0  0  0  0  0  0  0  0  0  0  0
   -5.6692   -0.5888   35.5737 H   0  0  0  0  0  0  0  0  0  0  0  0
   -2.1032   -1.5759   33.7606 H   0  0  0  0  0  0  0  0  0  0  0  0
   -3.2452   -2.4616   31.7231 H   0  0  0  0  0  0  0  0  0  0  0  0
   -5.7664   -7.8001   27.5597 H   0  0  0  0  0  0  0  0  0  0  0  0
   -3.5043  -10.1982   28.4251 H   0  0  0  0  0  0  0  0  0  0  0  0
   -4.4739   -9.4850   27.1684 H   0  0  0  0  0  0  0  0  0  0  0  0
   -0.3940   -6.3574   26.5323 H   0  0  0  0  0  0  0  0  0  0  0  0
    0.1077   -8.8598   25.4456 H   0  0  0  0  0  0  0  0  0  0  0  0
   -1.7122  -10.3202   26.4227 H   0  0  0  0  0  0  0  0  0  0  0  0
   -8.5180   -7.3231   30.3755 H   0  0  0  0  0  0  0  0  0  0  0  0
   -8.0767   -9.4967   30.9959 H   0  0  0  0  0  0  0  0  0  0  0  0
   -6.4434   -9.4937   30.2745 H   0  0  0  0  0  0  0  0  0  0  0  0
   -5.7483   -7.7332   31.9098 H   0  0  0  0  0  0  0  0  0  0  0  0
   -7.4026   -7.7223   32.6203 H   0  0  0  0  0  0  0  0  0  0  0  0
  1  2  1  0
  2  3  1  0
  3  4  1  0
  4  5  1  0
  5  6  2  0
  5  7  1  0
  7  8  2  0
  8  9  1  0
  9 10  2  0
 10 11  1  0
 11 12  2  0
  2 13  1  0
 13 14  1  0
 14 15  2  0
 14 16  1  0
 16 17  1  0
 17 18  2  0
 18 19  1  0
 19 20  2  0
 20 21  1  0
  2 22  1  0
 22 23  1  0
 23 24  1  0
 12  7  1  0
 21 17  1  0
 24 22  1  0
  1 25  1  0
  1 26  1  0
  1 27  1  0
  3 28  1  0
  3 29  1  0
  4 30  1  0
  8 31  1  0
  9 32  1  0
 11 33  1  0
 12 34  1  0
 13 35  1  0
 16 36  1  0
 16 37  1  0
 19 38  1  0
 20 39  1  0
 21 40  1  0
 22 41  1  0
 23 42  1  0
 23 43  1  0
 24 44  1  0
 24 45  1  0
M  END
>  <Energy>  (1476) 
173.35044167832393

>  <compound_id>  (1476) 
11945

>  <target_id>  (1476) 
1

>  <reference_id>  (1476) 
63

>  <inspiration_ids>  (1476) 
[63, 7]

>  <energy_score>  (1476) 
79.53576030315463

>  <distance_score>  (1476) 
13.55308496743923

>  <path>  (1476) 
/opt/xchem-fragalysis-2/maxwin/BulkDock/SCRATCH/511021/C11945-P63/C11945-P63.minimised.mol

>  <scratch_subdir>  (1476) 
/opt/xchem-fragalysis-2/maxwin/BulkDock/SCRATCH/511021/C11945-P63

>  <fragmenstein_runtime>  (1476) 
13.545593023300171

>  <fragmenstein_outcome>  (1476) 
too moved

>  <fragmenstein_mode>  (1476) 
expansion

>  <fragmenstein_error>  (1476) 


$$$$
C11945-P7
     RDKit          3D

 45 47  0  0  0  0  0  0  0  0999 V2000
   -7.0814   -9.9005   33.0392 C   0  0  0  0  0  0  0  0  0  0  0  0
   -6.6819   -8.5497   32.4306 C   0  0  0  0  0  0  0  0  0  0  0  0
   -6.7481   -7.3212   33.6100 C   0  0  0  0  0  0  0  0  0  0  0  0
   -7.9502   -6.6332   34.3591 N   0  0  0  0  0  0  0  0  0  0  0  0
   -9.4637   -6.6789   34.0935 C   0  0  0  0  0  0  0  0  0  0  0  0
  -10.0558   -7.3301   33.2888 O   0  0  0  0  0  0  0  0  0  0  0  0
  -10.6548   -5.4954   35.2016 C   0  0  0  0  0  0  0  0  0  0  0  0
  -11.3680   -4.0799   35.0276 C   0  0  0  0  0  0  0  0  0  0  0  0
  -11.8467   -3.0561   35.9203 C   0  0  0  0  0  0  0  0  0  0  0  0
  -11.6407   -3.1247   37.2043 N   0  0  0  0  0  0  0  0  0  0  0  0
  -10.8830   -4.1690   37.4584 C   0  0  0  0  0  0  0  0  0  0  0  0
  -10.4091   -5.1964   36.4536 C   0  0  0  0  0  0  0  0  0  0  0  0
   -5.1814   -8.7192   31.9476 N   0  0  0  0  0  0  0  0  0  0  0  0
   -4.6132   -9.2904   30.6725 C   0  0  0  0  0  0  0  0  0  0  0  0
   -5.1664   -9.6852   29.6752 O   0  0  0  0  0  0  0  0  0  0  0  0
   -3.0141   -9.2923   30.6510 C   0  0  0  0  0  0  0  0  0  0  0  0
   -2.3091   -8.7565   29.3510 C   0  0  0  0  0  0  0  0  0  0  0  0
   -1.5560   -7.6669   29.2486 N   0  0  0  0  0  0  0  0  0  0  0  0
   -1.0048   -7.6570   27.9828 C   0  0  0  0  0  0  0  0  0  0  0  0
   -1.4115   -8.7620   27.2853 C   0  0  0  0  0  0  0  0  0  0  0  0
   -2.2284   -9.4491   28.1536 N   0  0  0  0  0  0  0  0  0  0  0  0
   -7.4954   -8.2079   31.1940 C   0  0  0  0  0  0  0  0  0  0  0  0
   -7.8768   -9.2486   30.1484 C   0  0  0  0  0  0  0  0  0  0  0  0
   -8.9425   -8.6174   30.9734 C   0  0  0  0  0  0  0  0  0  0  0  0
   -6.8675  -10.7245   32.3485 H   0  0  0  0  0  0  0  0  0  0  0  0
   -8.1446   -9.9659   33.2774 H   0  0  0  0  0  0  0  0  0  0  0  0
   -6.4883  -10.1161   33.9352 H   0  0  0  0  0  0  0  0  0  0  0  0
   -6.1955   -6.4834   33.1749 H   0  0  0  0  0  0  0  0  0  0  0  0
   -6.1175   -7.6925   34.4241 H   0  0  0  0  0  0  0  0  0  0  0  0
   -7.7745   -6.0440   35.1632 H   0  0  0  0  0  0  0  0  0  0  0  0
  -11.4402   -3.5748   34.0480 H   0  0  0  0  0  0  0  0  0  0  0  0
  -12.3445   -2.1675   35.5457 H   0  0  0  0  0  0  0  0  0  0  0  0
  -10.5905   -4.2633   38.5079 H   0  0  0  0  0  0  0  0  0  0  0  0
   -9.7038   -5.9504   36.6736 H   0  0  0  0  0  0  0  0  0  0  0  0
   -4.4207   -8.4139   32.5452 H   0  0  0  0  0  0  0  0  0  0  0  0
   -2.6298   -8.7140   31.4983 H   0  0  0  0  0  0  0  0  0  0  0  0
   -2.7010  -10.3328   30.7992 H   0  0  0  0  0  0  0  0  0  0  0  0
   -0.3544   -6.8574   27.6592 H   0  0  0  0  0  0  0  0  0  0  0  0
   -1.2086   -9.1112   26.2826 H   0  0  0  0  0  0  0  0  0  0  0  0
   -2.6908  -10.3272   27.9638 H   0  0  0  0  0  0  0  0  0  0  0  0
   -7.1551   -7.2729   30.7761 H   0  0  0  0  0  0  0  0  0  0  0  0
   -7.6611  -10.2962   30.3170 H   0  0  0  0  0  0  0  0  0  0  0  0
   -7.7988   -8.9622   29.1055 H   0  0  0  0  0  0  0  0  0  0  0  0
   -9.6119   -7.9325   30.4690 H   0  0  0  0  0  0  0  0  0  0  0  0
   -9.4523   -9.2356   31.7013 H   0  0  0  0  0  0  0  0  0  0  0  0
  1  2  1  0
  2  3  1  0
  3  4  1  0
  4  5  1  0
  5  6  2  0
  5  7  1  0
  7  8  2  0
  8  9  1  0
  9 10  2  0
 10 11  1  0
 11 12  2  0
  2 13  1  0
 13 14  1  0
 14 15  2  0
 14 16  1  0
 16 17  1  0
 17 18  2  0
 18 19  1  0
 19 20  2  0
 20 21  1  0
  2 22  1  0
 22 23  1  0
 23 24  1  0
 12  7  1  0
 21 17  1  0
 24 22  1  0
  1 25  1  0
  1 26  1  0
  1 27  1  0
  3 28  1  0
  3 29  1  0
  4 30  1  0
  8 31  1  0
  9 32  1  0
 11 33  1  0
 12 34  1  0
 13 35  1  0
 16 36  1  0
 16 37  1  0
 19 38  1  0
 20 39  1  0
 21 40  1  0
 22 41  1  0
 23 42  1  0
 23 43  1  0
 24 44  1  0
 24 45  1  0
M  END
>  <Energy>  (1477) 
250.42576415405094

>  <compound_id>  (1477) 
11945

>  <target_id>  (1477) 
1

>  <reference_id>  (1477) 
7

>  <inspiration_ids>  (1477) 
[63, 7]

>  <energy_score>  (1477) 
156.61108277888115

>  <distance_score>  (1477) 
13.347928840231763

>  <path>  (1477) 
/opt/xchem-fragalysis-2/maxwin/BulkDock/SCRATCH/511021/C11945-P7/C11945-P7.minimised.mol

>  <scratch_subdir>  (1477) 
/opt/xchem-fragalysis-2/maxwin/BulkDock/SCRATCH/511021/C11945-P7

>  <fragmenstein_runtime>  (1477) 
14.977776765823364

>  <fragmenstein_outcome>  (1477) 
too moved

>  <fragmenstein_mode>  (1477) 
expansion

>  <fragmenstein_error>  (1477) 


$$$$
C56686-P63
     RDKit          3D

 19 19  0  0  0  0  0  0  0  0999 V2000
    7.0344   -1.8495   24.1718 F   0  0  0  0  0  0  0  0  0  0  0  0
    5.7745   -1.4372   23.8441 C   0  0  0  0  0  0  0  0  0  0  0  0
    5.6208   -1.8167   22.5429 F   0  0  0  0  0  0  0  0  0  0  0  0
    5.8023   -0.0853   23.8708 F   0  0  0  0  0  0  0  0  0  0  0  0
    4.6889   -2.0474   24.7895 C   0  0  0  0  0  0  0  0  0  0  0  0
    4.2310   -1.1756   25.8884 O   0  0  0  0  0  0  0  0  0  0  0  0
    3.1007   -1.7740   26.6430 N   0  0  0  0  0  0  0  0  0  0  0  0
    2.4332   -0.8803   27.3582 C   0  0  0  0  0  0  0  0  0  0  0  0
    1.2236   -1.1260   28.1704 C   0  0  0  0  0  0  0  0  0  0  0  0
    0.6224   -0.1933   28.9045 N   0  0  0  0  0  0  0  0  0  0  0  0
   -0.4858   -0.7844   29.4742 C   0  0  0  0  0  0  0  0  0  0  0  0
   -0.5773   -2.0966   29.0875 C   0  0  0  0  0  0  0  0  0  0  0  0
    0.5122   -2.3016   28.2768 N   0  0  0  0  0  0  0  0  0  0  0  0
    3.8110   -2.3181   24.1976 H   0  0  0  0  0  0  0  0  0  0  0  0
    5.0815   -2.9643   25.2414 H   0  0  0  0  0  0  0  0  0  0  0  0
    2.7896    0.1648   27.3499 H   0  0  0  0  0  0  0  0  0  0  0  0
   -1.1532   -0.2254   30.1169 H   0  0  0  0  0  0  0  0  0  0  0  0
   -1.2978   -2.8755   29.2876 H   0  0  0  0  0  0  0  0  0  0  0  0
    0.7503   -3.1438   27.7740 H   0  0  0  0  0  0  0  0  0  0  0  0
  1  2  1  0
  2  3  1  0
  2  4  1  0
  2  5  1  0
  5  6  1  0
  6  7  1  0
  7  8  2  3
  8  9  1  0
  9 10  2  0
 10 11  1  0
 11 12  2  0
 12 13  1  0
 13  9  1  0
  5 14  1  0
  5 15  1  0
  8 16  1  0
 11 17  1  0
 12 18  1  0
 13 19  1  0
M  END
>  <Energy>  (1478) 
66.444860107059242

>  <compound_id>  (1478) 
56686

>  <target_id>  (1478) 
1

>  <reference_id>  (1478) 
63

>  <inspiration_ids>  (1478) 
[63, 7]

>  <energy_score>  (1478) 
-25.650428682976298

>  <distance_score>  (1478) 
13.514771670169491

>  <path>  (1478) 
/opt/xchem-fragalysis-2/maxwin/BulkDock/SCRATCH/511021/C56686-P63/C56686-P63.minimised.mol

>  <scratch_subdir>  (1478) 
/opt/xchem-fragalysis-2/maxwin/BulkDock/SCRATCH/511021/C56686-P63

>  <fragmenstein_runtime>  (1478) 
3.1505281925201416

>  <fragmenstein_outcome>  (1478) 
too moved

>  <fragmenstein_mode>  (1478) 
expansion

>  <fragmenstein_error>  (1478) 


$$$$
C56686-P7
     RDKit          3D

 19 19  0  0  0  0  0  0  0  0999 V2000
    6.8746   -1.3056   23.7736 F   0  0  0  0  0  0  0  0  0  0  0  0
    5.7614   -2.0156   24.1438 C   0  0  0  0  0  0  0  0  0  0  0  0
    5.0982   -2.2621   22.9929 F   0  0  0  0  0  0  0  0  0  0  0  0
    6.2263   -3.2073   24.6035 F   0  0  0  0  0  0  0  0  0  0  0  0
    4.9613   -1.2779   25.2622 C   0  0  0  0  0  0  0  0  0  0  0  0
    3.8823   -2.0399   25.9044 O   0  0  0  0  0  0  0  0  0  0  0  0
    3.0497   -1.1927   26.8149 N   0  0  0  0  0  0  0  0  0  0  0  0
    2.1025   -1.9119   27.4012 C   0  0  0  0  0  0  0  0  0  0  0  0
    1.0176   -1.4621   28.2915 C   0  0  0  0  0  0  0  0  0  0  0  0
    0.1762   -2.3059   28.8842 N   0  0  0  0  0  0  0  0  0  0  0  0
   -0.7442   -1.5453   29.5671 C   0  0  0  0  0  0  0  0  0  0  0  0
   -0.4573   -0.2125   29.4202 C   0  0  0  0  0  0  0  0  0  0  0  0
    0.6626   -0.1736   28.6223 N   0  0  0  0  0  0  0  0  0  0  0  0
    5.6678   -1.0344   26.0640 H   0  0  0  0  0  0  0  0  0  0  0  0
    4.5632   -0.3309   24.8955 H   0  0  0  0  0  0  0  0  0  0  0  0
    2.0983   -2.9970   27.2141 H   0  0  0  0  0  0  0  0  0  0  0  0
   -1.5538   -2.0037   30.1193 H   0  0  0  0  0  0  0  0  0  0  0  0
   -0.9268    0.6858   29.7931 H   0  0  0  0  0  0  0  0  0  0  0  0
    1.1499    0.6494   28.2958 H   0  0  0  0  0  0  0  0  0  0  0  0
  1  2  1  0
  2  3  1  0
  2  4  1  0
  2  5  1  0
  5  6  1  0
  6  7  1  0
  7  8  2  3
  8  9  1  0
  9 10  2  0
 10 11  1  0
 11 12  2  0
 12 13  1  0
 13  9  1  0
  5 14  1  0
  5 15  1  0
  8 16  1  0
 11 17  1  0
 12 18  1  0
 13 19  1  0
M  END
>  <Energy>  (1479) 
65.792761074936678

>  <compound_id>  (1479) 
56686

>  <target_id>  (1479) 
1

>  <reference_id>  (1479) 
7

>  <inspiration_ids>  (1479) 
[63, 7]

>  <energy_score>  (1479) 
-26.30252771509825

>  <distance_score>  (1479) 
13.555280414464836

>  <path>  (1479) 
/opt/xchem-fragalysis-2/maxwin/BulkDock/SCRATCH/511021/C56686-P7/C56686-P7.minimised.mol

>  <scratch_subdir>  (1479) 
/opt/xchem-fragalysis-2/maxwin/BulkDock/SCRATCH/511021/C56686-P7

>  <fragmenstein_runtime>  (1479) 
4.082732915878296

>  <fragmenstein_outcome>  (1479) 
too moved

>  <fragmenstein_mode>  (1479) 
expansion

>  <fragmenstein_error>  (1479) 


$$$$
C56693-P63
     RDKit          3D

 24 24  0  0  0  0  0  0  0  0999 V2000
    2.3105   -1.8767   29.7412 C   0  0  0  0  0  0  0  0  0  0  0  0
    1.8319   -2.4407   28.6210 C   0  0  0  0  0  0  0  0  0  0  0  0
    0.3782   -2.9269   28.6356 C   0  0  0  0  0  0  0  0  0  0  0  0
    2.6361   -2.6241   27.2692 C   0  0  0  0  0  0  0  0  0  0  0  0
    4.1485   -2.2352   26.9110 C   0  0  0  0  0  0  0  0  0  0  0  0
    4.7693   -2.9618   25.6554 C   0  0  0  0  0  0  0  0  0  0  0  0
    4.6150   -4.1827   25.5617 O   0  0  0  0  0  0  0  0  0  0  0  0
    5.6207   -2.2463   24.6879 C   0  0  0  0  0  0  0  0  0  0  0  0
    6.2879   -2.7608   23.5777 C   0  0  0  0  0  0  0  0  0  0  0  0
    7.0395   -1.8031   22.9309 N   0  0  0  0  0  0  0  0  0  0  0  0
    6.8108   -0.6992   23.5972 C   0  0  0  0  0  0  0  0  0  0  0  0
    5.9634   -0.9123   24.6536 N   0  0  0  0  0  0  0  0  0  0  0  0
    3.3284   -1.5041   29.7889 H   0  0  0  0  0  0  0  0  0  0  0  0
    1.7064   -1.7684   30.6367 H   0  0  0  0  0  0  0  0  0  0  0  0
   -0.2262   -2.3026   27.9730 H   0  0  0  0  0  0  0  0  0  0  0  0
   -0.0644   -2.8833   29.6362 H   0  0  0  0  0  0  0  0  0  0  0  0
    0.3296   -3.9660   28.2957 H   0  0  0  0  0  0  0  0  0  0  0  0
    2.0640   -2.0087   26.5780 H   0  0  0  0  0  0  0  0  0  0  0  0
    2.5036   -3.6737   26.9900 H   0  0  0  0  0  0  0  0  0  0  0  0
    4.7891   -2.4872   27.7638 H   0  0  0  0  0  0  0  0  0  0  0  0
    4.1960   -1.1509   26.7708 H   0  0  0  0  0  0  0  0  0  0  0  0
    6.2683   -3.7864   23.2247 H   0  0  0  0  0  0  0  0  0  0  0  0
    7.2204    0.2772   23.3757 H   0  0  0  0  0  0  0  0  0  0  0  0
    5.6465   -0.1985   25.2941 H   0  0  0  0  0  0  0  0  0  0  0  0
  1  2  2  0
  2  3  1  0
  2  4  1  0
  4  5  1  0
  5  6  1  0
  6  7  2  0
  6  8  1  0
  8  9  2  0
  9 10  1  0
 10 11  2  0
 11 12  1  0
 12  8  1  0
  1 13  1  0
  1 14  1  0
  3 15  1  0
  3 16  1  0
  3 17  1  0
  4 18  1  0
  4 19  1  0
  5 20  1  0
  5 21  1  0
  9 22  1  0
 11 23  1  0
 12 24  1  0
M  END
>  <Energy>  (1480) 
24.76478677610779

>  <compound_id>  (1480) 
56693

>  <target_id>  (1480) 
1

>  <reference_id>  (1480) 
63

>  <inspiration_ids>  (1480) 
[63, 7]

>  <energy_score>  (1480) 
-7.891229283440907

>  <distance_score>  (1480) 
13.555588890055352

>  <path>  (1480) 
/opt/xchem-fragalysis-2/maxwin/BulkDock/SCRATCH/511021/C56693-P63/C56693-P63.minimised.mol

>  <scratch_subdir>  (1480) 
/opt/xchem-fragalysis-2/maxwin/BulkDock/SCRATCH/511021/C56693-P63

>  <fragmenstein_runtime>  (1480) 
3.904127359390259

>  <fragmenstein_outcome>  (1480) 
too moved

>  <fragmenstein_mode>  (1480) 
expansion

>  <fragmenstein_error>  (1480) 


$$$$
C56693-P7
     RDKit          3D

 24 24  0  0  0  0  0  0  0  0999 V2000
   -0.0505   -1.1426   28.3370 C   0  0  0  0  0  0  0  0  0  0  0  0
    1.0265   -1.9514   28.2104 C   0  0  0  0  0  0  0  0  0  0  0  0
    0.9183   -3.3408   28.7788 C   0  0  0  0  0  0  0  0  0  0  0  0
    2.4003   -1.4364   27.5910 C   0  0  0  0  0  0  0  0  0  0  0  0
    3.3665   -2.1782   26.5196 C   0  0  0  0  0  0  0  0  0  0  0  0
    3.7608   -1.3275   25.2654 C   0  0  0  0  0  0  0  0  0  0  0  0
    3.1732   -0.2665   25.0336 O   0  0  0  0  0  0  0  0  0  0  0  0
    4.8382   -1.7312   24.3581 C   0  0  0  0  0  0  0  0  0  0  0  0
    5.9165   -2.5919   24.4278 C   0  0  0  0  0  0  0  0  0  0  0  0
    6.7069   -2.5176   23.2951 N   0  0  0  0  0  0  0  0  0  0  0  0
    6.0810   -1.6824   22.5002 C   0  0  0  0  0  0  0  0  0  0  0  0
    4.9727   -1.1667   23.1015 N   0  0  0  0  0  0  0  0  0  0  0  0
   -0.0253   -0.1209   27.9701 H   0  0  0  0  0  0  0  0  0  0  0  0
   -0.9842   -1.4856   28.7715 H   0  0  0  0  0  0  0  0  0  0  0  0
    1.0457   -4.0730   27.9786 H   0  0  0  0  0  0  0  0  0  0  0  0
   -0.0466   -3.5350   29.2588 H   0  0  0  0  0  0  0  0  0  0  0  0
    1.7030   -3.5017   29.5248 H   0  0  0  0  0  0  0  0  0  0  0  0
    3.0391   -1.2887   28.4750 H   0  0  0  0  0  0  0  0  0  0  0  0
    2.2100   -0.4222   27.2186 H   0  0  0  0  0  0  0  0  0  0  0  0
    4.3011   -2.4112   27.0451 H   0  0  0  0  0  0  0  0  0  0  0  0
    2.9311   -3.1269   26.2056 H   0  0  0  0  0  0  0  0  0  0  0  0
    6.1938   -3.2377   25.2504 H   0  0  0  0  0  0  0  0  0  0  0  0
    6.3636   -1.4117   21.4945 H   0  0  0  0  0  0  0  0  0  0  0  0
    4.3224   -0.4972   22.7110 H   0  0  0  0  0  0  0  0  0  0  0  0
  1  2  2  0
  2  3  1  0
  2  4  1  0
  4  5  1  0
  5  6  1  0
  6  7  2  0
  6  8  1  0
  8  9  2  0
  9 10  1  0
 10 11  2  0
 11 12  1  0
 12  8  1  0
  1 13  1  0
  1 14  1  0
  3 15  1  0
  3 16  1  0
  3 17  1  0
  4 18  1  0
  4 19  1  0
  5 20  1  0
  5 21  1  0
  9 22  1  0
 11 23  1  0
 12 24  1  0
M  END
>  <Energy>  (1481) 
24.162115210058911

>  <compound_id>  (1481) 
56693

>  <target_id>  (1481) 
1

>  <reference_id>  (1481) 
7

>  <inspiration_ids>  (1481) 
[63, 7]

>  <energy_score>  (1481) 
-8.493900849488853

>  <distance_score>  (1481) 
13.361187035523972

>  <path>  (1481) 
/opt/xchem-fragalysis-2/maxwin/BulkDock/SCRATCH/511021/C56693-P7/C56693-P7.minimised.mol

>  <scratch_subdir>  (1481) 
/opt/xchem-fragalysis-2/maxwin/BulkDock/SCRATCH/511021/C56693-P7

>  <fragmenstein_runtime>  (1481) 
3.7803359031677246

>  <fragmenstein_outcome>  (1481) 
too moved

>  <fragmenstein_mode>  (1481) 
expansion

>  <fragmenstein_error>  (1481) 


$$$$
C56694-P63
     RDKit          3D

 24 24  0  0  0  0  0  0  0  0999 V2000
    3.7631   -1.9207   28.3953 C   0  0  0  0  0  0  0  0  0  0  0  0
    2.9325   -1.4186   27.2907 N   0  0  0  0  0  0  0  0  0  0  0  0
    2.0161   -0.3299   27.8687 C   0  0  0  0  0  0  0  0  0  0  0  0
    0.8453   -0.7546   28.7843 C   0  0  0  0  0  0  0  0  0  0  0  0
    0.4895   -0.2093   29.9429 N   0  0  0  0  0  0  0  0  0  0  0  0
   -0.6894   -0.8118   30.3224 C   0  0  0  0  0  0  0  0  0  0  0  0
   -1.0737   -1.7365   29.3863 C   0  0  0  0  0  0  0  0  0  0  0  0
   -0.0919   -1.7001   28.4276 N   0  0  0  0  0  0  0  0  0  0  0  0
    3.9749   -0.8026   26.3373 O   0  0  0  0  0  0  0  0  0  0  0  0
    4.2977   -1.7056   25.2098 C   0  0  0  0  0  0  0  0  0  0  0  0
    5.6819   -1.5033   24.4934 C   0  0  0  0  0  0  0  0  0  0  0  0
    5.7586   -0.4911   23.5952 F   0  0  0  0  0  0  0  0  0  0  0  0
    6.6723   -1.2723   25.3970 F   0  0  0  0  0  0  0  0  0  0  0  0
    6.0654   -2.6002   23.7709 F   0  0  0  0  0  0  0  0  0  0  0  0
    4.4925   -2.6459   28.0266 H   0  0  0  0  0  0  0  0  0  0  0  0
    3.1483   -2.4385   29.1387 H   0  0  0  0  0  0  0  0  0  0  0  0
    4.3192   -1.1184   28.8934 H   0  0  0  0  0  0  0  0  0  0  0  0
    1.5725    0.2159   27.0355 H   0  0  0  0  0  0  0  0  0  0  0  0
    2.6294    0.3998   28.4135 H   0  0  0  0  0  0  0  0  0  0  0  0
   -1.1901   -0.5370   31.2411 H   0  0  0  0  0  0  0  0  0  0  0  0
   -1.9240   -2.3961   29.3063 H   0  0  0  0  0  0  0  0  0  0  0  0
   -0.0495   -2.2432   27.5770 H   0  0  0  0  0  0  0  0  0  0  0  0
    4.2210   -2.7207   25.5901 H   0  0  0  0  0  0  0  0  0  0  0  0
    3.4865   -1.6492   24.4989 H   0  0  0  0  0  0  0  0  0  0  0  0
  1  2  1  0
  2  3  1  0
  3  4  1  0
  4  5  2  0
  5  6  1  0
  6  7  2  0
  7  8  1  0
  2  9  1  0
  9 10  1  0
 10 11  1  0
 11 12  1  0
 11 13  1  0
 11 14  1  0
  8  4  1  0
  1 15  1  0
  1 16  1  0
  1 17  1  0
  3 18  1  0
  3 19  1  0
  6 20  1  0
  7 21  1  0
  8 22  1  0
 10 23  1  0
 10 24  1  0
M  END
>  <Energy>  (1482) 
73.247142392985978

>  <compound_id>  (1482) 
56694

>  <target_id>  (1482) 
1

>  <reference_id>  (1482) 
63

>  <inspiration_ids>  (1482) 
[63, 7]

>  <energy_score>  (1482) 
-31.672948378758264

>  <distance_score>  (1482) 
13.327792353103346

>  <path>  (1482) 
/opt/xchem-fragalysis-2/maxwin/BulkDock/SCRATCH/511021/C56694-P63/C56694-P63.minimised.mol

>  <scratch_subdir>  (1482) 
/opt/xchem-fragalysis-2/maxwin/BulkDock/SCRATCH/511021/C56694-P63

>  <fragmenstein_runtime>  (1482) 
4.183233976364136

>  <fragmenstein_outcome>  (1482) 
too moved

>  <fragmenstein_mode>  (1482) 
expansion

>  <fragmenstein_error>  (1482) 


$$$$
C56694-P7
     RDKit          3D

 24 24  0  0  0  0  0  0  0  0999 V2000
    3.3977    0.7663   27.0382 C   0  0  0  0  0  0  0  0  0  0  0  0
    3.6420   -0.6728   27.1463 N   0  0  0  0  0  0  0  0  0  0  0  0
    2.3290   -1.3889   27.5039 C   0  0  0  0  0  0  0  0  0  0  0  0
    1.3243   -0.9394   28.5968 C   0  0  0  0  0  0  0  0  0  0  0  0
    1.4589   -0.1544   29.6542 N   0  0  0  0  0  0  0  0  0  0  0  0
    0.2483   -0.1669   30.3207 C   0  0  0  0  0  0  0  0  0  0  0  0
   -0.6581   -0.9648   29.6711 C   0  0  0  0  0  0  0  0  0  0  0  0
    0.0241   -1.4411   28.5832 N   0  0  0  0  0  0  0  0  0  0  0  0
    4.0182   -1.1204   25.7170 O   0  0  0  0  0  0  0  0  0  0  0  0
    5.4519   -0.9908   25.4031 C   0  0  0  0  0  0  0  0  0  0  0  0
    5.8957   -1.5381   24.0036 C   0  0  0  0  0  0  0  0  0  0  0  0
    7.1870   -1.9980   24.0110 F   0  0  0  0  0  0  0  0  0  0  0  0
    5.1314   -2.5618   23.5600 F   0  0  0  0  0  0  0  0  0  0  0  0
    5.9131   -0.5817   23.0332 F   0  0  0  0  0  0  0  0  0  0  0  0
    4.3179    1.2881   26.7572 H   0  0  0  0  0  0  0  0  0  0  0  0
    3.1011    1.1864   28.0039 H   0  0  0  0  0  0  0  0  0  0  0  0
    2.6336    1.0153   26.2989 H   0  0  0  0  0  0  0  0  0  0  0  0
    1.7555   -1.4282   26.5884 H   0  0  0  0  0  0  0  0  0  0  0  0
    2.6116   -2.4208   27.7464 H   0  0  0  0  0  0  0  0  0  0  0  0
    0.1100    0.4019   31.2308 H   0  0  0  0  0  0  0  0  0  0  0  0
   -1.6860   -1.2286   29.8714 H   0  0  0  0  0  0  0  0  0  0  0  0
   -0.3390   -2.0658   27.8761 H   0  0  0  0  0  0  0  0  0  0  0  0
    5.7090    0.0728   25.4406 H   0  0  0  0  0  0  0  0  0  0  0  0
    6.0145   -1.4849   26.1986 H   0  0  0  0  0  0  0  0  0  0  0  0
  1  2  1  0
  2  3  1  0
  3  4  1  0
  4  5  2  0
  5  6  1  0
  6  7  2  0
  7  8  1  0
  2  9  1  0
  9 10  1  0
 10 11  1  0
 11 12  1  0
 11 13  1  0
 11 14  1  0
  8  4  1  0
  1 15  1  0
  1 16  1  0
  1 17  1  0
  3 18  1  0
  3 19  1  0
  6 20  1  0
  7 21  1  0
  8 22  1  0
 10 23  1  0
 10 24  1  0
M  END
>  <Energy>  (1483) 
81.646620536599485

>  <compound_id>  (1483) 
56694

>  <target_id>  (1483) 
1

>  <reference_id>  (1483) 
7

>  <inspiration_ids>  (1483) 
[63, 7]

>  <energy_score>  (1483) 
-23.273470235144586

>  <distance_score>  (1483) 
13.439587560365567

>  <path>  (1483) 
/opt/xchem-fragalysis-2/maxwin/BulkDock/SCRATCH/511021/C56694-P7/C56694-P7.minimised.mol

>  <scratch_subdir>  (1483) 
/opt/xchem-fragalysis-2/maxwin/BulkDock/SCRATCH/511021/C56694-P7

>  <fragmenstein_runtime>  (1483) 
3.950395107269287

>  <fragmenstein_outcome>  (1483) 
too moved

>  <fragmenstein_mode>  (1483) 
expansion

>  <fragmenstein_error>  (1483) 


$$$$
C56718-P63
     RDKit          3D

 26 26  0  0  0  0  0  0  0  0999 V2000
    6.2887   -1.3941   22.6188 C   0  0  0  0  0  0  0  0  0  0  0  0
    6.3321   -0.1561   23.5047 C   0  0  0  0  0  0  0  0  0  0  0  0
    7.6821    0.5464   23.2868 C   0  0  0  0  0  0  0  0  0  0  0  0
    6.0690   -0.3935   25.0316 C   0  0  0  0  0  0  0  0  0  0  0  0
    4.9069   -1.1749   25.4307 O   0  0  0  0  0  0  0  0  0  0  0  0
    3.9279   -0.4647   26.3303 C   0  0  0  0  0  0  0  0  0  0  0  0
    2.8186   -1.5987   27.3513 S   0  0  0  0  0  0  0  0  0  0  0  0
    1.4453   -0.7697   28.0512 C   0  0  0  0  0  0  0  0  0  0  0  0
    1.3514    0.4147   28.6137 N   0  0  0  0  0  0  0  0  0  0  0  0
    0.0839    0.4621   29.1738 C   0  0  0  0  0  0  0  0  0  0  0  0
   -0.6010   -0.7086   28.9505 C   0  0  0  0  0  0  0  0  0  0  0  0
    0.2773   -1.4814   28.2356 N   0  0  0  0  0  0  0  0  0  0  0  0
    6.9518   -2.1768   22.9981 H   0  0  0  0  0  0  0  0  0  0  0  0
    5.2661   -1.7720   22.5763 H   0  0  0  0  0  0  0  0  0  0  0  0
    6.5803   -1.1563   21.5910 H   0  0  0  0  0  0  0  0  0  0  0  0
    5.5498    0.5247   23.1495 H   0  0  0  0  0  0  0  0  0  0  0  0
    8.5180   -0.0967   23.5792 H   0  0  0  0  0  0  0  0  0  0  0  0
    7.7379    1.4649   23.8805 H   0  0  0  0  0  0  0  0  0  0  0  0
    7.8012    0.8251   22.2366 H   0  0  0  0  0  0  0  0  0  0  0  0
    6.9343   -0.9207   25.4500 H   0  0  0  0  0  0  0  0  0  0  0  0
    6.0340    0.5837   25.5286 H   0  0  0  0  0  0  0  0  0  0  0  0
    3.3289    0.1937   25.7016 H   0  0  0  0  0  0  0  0  0  0  0  0
    4.4998    0.1302   27.0487 H   0  0  0  0  0  0  0  0  0  0  0  0
   -0.2549    1.3418   29.7055 H   0  0  0  0  0  0  0  0  0  0  0  0
   -1.5904   -1.0526   29.2149 H   0  0  0  0  0  0  0  0  0  0  0  0
    0.1233   -2.4132   27.8777 H   0  0  0  0  0  0  0  0  0  0  0  0
  1  2  1  0
  2  3  1  0
  2  4  1  0
  4  5  1  0
  5  6  1  0
  6  7  1  0
  7  8  1  0
  8  9  2  0
  9 10  1  0
 10 11  2  0
 11 12  1  0
 12  8  1  0
  1 13  1  0
  1 14  1  0
  1 15  1  0
  2 16  1  0
  3 17  1  0
  3 18  1  0
  3 19  1  0
  4 20  1  0
  4 21  1  0
  6 22  1  0
  6 23  1  0
 10 24  1  0
 11 25  1  0
 12 26  1  0
M  END
>  <Energy>  (1484) 
9.6267375567996361

>  <compound_id>  (1484) 
56718

>  <target_id>  (1484) 
1

>  <reference_id>  (1484) 
63

>  <inspiration_ids>  (1484) 
[63, 7]

>  <energy_score>  (1484) 
-22.412695486639876

>  <distance_score>  (1484) 
12.964809315186253

>  <path>  (1484) 
/opt/xchem-fragalysis-2/maxwin/BulkDock/SCRATCH/511021/C56718-P63/C56718-P63.minimised.mol

>  <scratch_subdir>  (1484) 
/opt/xchem-fragalysis-2/maxwin/BulkDock/SCRATCH/511021/C56718-P63

>  <fragmenstein_runtime>  (1484) 
4.189310073852539

>  <fragmenstein_outcome>  (1484) 
too moved

>  <fragmenstein_mode>  (1484) 
expansion

>  <fragmenstein_error>  (1484) 


$$$$
C56718-P7
     RDKit          3D

 26 26  0  0  0  0  0  0  0  0999 V2000
    6.2787   -0.8511   22.4406 C   0  0  0  0  0  0  0  0  0  0  0  0
    6.4891   -1.1141   23.9462 C   0  0  0  0  0  0  0  0  0  0  0  0
    7.5598   -0.1646   24.4742 C   0  0  0  0  0  0  0  0  0  0  0  0
    5.1118   -0.9751   24.6867 C   0  0  0  0  0  0  0  0  0  0  0  0
    4.9944   -1.2536   26.1163 O   0  0  0  0  0  0  0  0  0  0  0  0
    3.5223   -1.4048   26.5195 C   0  0  0  0  0  0  0  0  0  0  0  0
    2.9888   -0.5966   28.1380 S   0  0  0  0  0  0  0  0  0  0  0  0
    1.3571   -1.1030   28.5463 C   0  0  0  0  0  0  0  0  0  0  0  0
    0.7481   -2.2442   28.3268 N   0  0  0  0  0  0  0  0  0  0  0  0
   -0.4821   -2.1454   28.9527 C   0  0  0  0  0  0  0  0  0  0  0  0
   -0.6047   -0.9409   29.6037 C   0  0  0  0  0  0  0  0  0  0  0  0
    0.5771   -0.2933   29.3447 N   0  0  0  0  0  0  0  0  0  0  0  0
    7.2201   -0.7953   21.9029 H   0  0  0  0  0  0  0  0  0  0  0  0
    5.6671   -1.6386   21.9903 H   0  0  0  0  0  0  0  0  0  0  0  0
    5.7688    0.1055   22.2815 H   0  0  0  0  0  0  0  0  0  0  0  0
    6.8686   -2.1333   24.0706 H   0  0  0  0  0  0  0  0  0  0  0  0
    8.5098   -0.3065   23.9493 H   0  0  0  0  0  0  0  0  0  0  0  0
    7.7364   -0.3419   25.5401 H   0  0  0  0  0  0  0  0  0  0  0  0
    7.2567    0.8807   24.3524 H   0  0  0  0  0  0  0  0  0  0  0  0
    4.7763    0.0600   24.5764 H   0  0  0  0  0  0  0  0  0  0  0  0
    4.4357   -1.6827   24.2000 H   0  0  0  0  0  0  0  0  0  0  0  0
    2.9146   -0.9639   25.7333 H   0  0  0  0  0  0  0  0  0  0  0  0
    3.3374   -2.4785   26.5834 H   0  0  0  0  0  0  0  0  0  0  0  0
   -1.2002   -2.9535   28.8950 H   0  0  0  0  0  0  0  0  0  0  0  0
   -1.3907   -0.5029   30.2006 H   0  0  0  0  0  0  0  0  0  0  0  0
    0.8606    0.6155   29.6784 H   0  0  0  0  0  0  0  0  0  0  0  0
  1  2  1  0
  2  3  1  0
  2  4  1  0
  4  5  1  0
  5  6  1  0
  6  7  1  0
  7  8  1  0
  8  9  2  0
  9 10  1  0
 10 11  2  0
 11 12  1  0
 12  8  1  0
  1 13  1  0
  1 14  1  0
  1 15  1  0
  2 16  1  0
  3 17  1  0
  3 18  1  0
  3 19  1  0
  4 20  1  0
  4 21  1  0
  6 22  1  0
  6 23  1  0
 10 24  1  0
 11 25  1  0
 12 26  1  0
M  END
>  <Energy>  (1485) 
7.8324452529674069

>  <compound_id>  (1485) 
56718

>  <target_id>  (1485) 
1

>  <reference_id>  (1485) 
7

>  <inspiration_ids>  (1485) 
[63, 7]

>  <energy_score>  (1485) 
-24.206987790471715

>  <distance_score>  (1485) 
12.899336309473865

>  <path>  (1485) 
/opt/xchem-fragalysis-2/maxwin/BulkDock/SCRATCH/511021/C56718-P7/C56718-P7.minimised.mol

>  <scratch_subdir>  (1485) 
/opt/xchem-fragalysis-2/maxwin/BulkDock/SCRATCH/511021/C56718-P7

>  <fragmenstein_runtime>  (1485) 
4.674712419509888

>  <fragmenstein_outcome>  (1485) 
too moved

>  <fragmenstein_mode>  (1485) 
expansion

>  <fragmenstein_error>  (1485) 


$$$$
C10594-P63
     RDKit          3D

 36 37  0  0  0  0  0  0  0  0999 V2000
    4.3605   -1.7063   27.2512 C   0  0  0  0  0  0  0  0  0  0  0  0
    3.4017   -0.9981   26.3068 C   0  0  0  0  0  0  0  0  0  0  0  0
    2.7657    0.1894   27.1033 C   0  0  0  0  0  0  0  0  0  0  0  0
    1.6367   -0.1492   27.9819 N   0  0  0  0  0  0  0  0  0  0  0  0
    1.0677    0.5550   29.1009 C   0  0  0  0  0  0  0  0  0  0  0  0
    1.4180    1.5584   29.6516 O   0  0  0  0  0  0  0  0  0  0  0  0
   -0.1512   -0.1391   29.6605 C   0  0  0  0  0  0  0  0  0  0  0  0
   -0.9508    0.2911   30.7741 C   0  0  0  0  0  0  0  0  0  0  0  0
   -1.9353   -0.6552   30.9291 C   0  0  0  0  0  0  0  0  0  0  0  0
   -1.7163   -1.5658   29.9383 N   0  0  0  0  0  0  0  0  0  0  0  0
   -0.6477   -1.2903   29.1650 N   0  0  0  0  0  0  0  0  0  0  0  0
    4.0717   -0.5848   25.0498 N   0  0  0  0  0  0  0  0  0  0  0  0
    4.3170   -1.3857   23.6661 C   0  0  0  0  0  0  0  0  0  0  0  0
    4.0577   -2.5052   23.4543 O   0  0  0  0  0  0  0  0  0  0  0  0
    5.0320   -0.1221   22.2085 C   0  0  0  0  0  0  0  0  0  0  0  0
    6.1147    0.5536   20.6941 C   0  0  0  0  0  0  0  0  0  0  0  0
    7.0030   -0.0757   19.8545 N   0  0  0  0  0  0  0  0  0  0  0  0
    6.8650    0.6466   18.6789 C   0  0  0  0  0  0  0  0  0  0  0  0
    6.6565    1.9425   19.0339 C   0  0  0  0  0  0  0  0  0  0  0  0
    6.6116    1.8380   20.4172 N   0  0  0  0  0  0  0  0  0  0  0  0
    4.0558   -1.6198   28.3001 H   0  0  0  0  0  0  0  0  0  0  0  0
    4.3335   -2.7672   27.0327 H   0  0  0  0  0  0  0  0  0  0  0  0
    5.3861   -1.3365   27.1574 H   0  0  0  0  0  0  0  0  0  0  0  0
    2.6297   -1.7100   26.0405 H   0  0  0  0  0  0  0  0  0  0  0  0
    3.5229    0.6823   27.7266 H   0  0  0  0  0  0  0  0  0  0  0  0
    2.4100    0.9785   26.4353 H   0  0  0  0  0  0  0  0  0  0  0  0
    1.1167   -1.0168   27.8357 H   0  0  0  0  0  0  0  0  0  0  0  0
   -0.7888    1.1792   31.3693 H   0  0  0  0  0  0  0  0  0  0  0  0
   -2.7532   -0.7552   31.6265 H   0  0  0  0  0  0  0  0  0  0  0  0
   -2.2555   -2.3957   29.7126 H   0  0  0  0  0  0  0  0  0  0  0  0
    4.3097    0.3722   24.9171 H   0  0  0  0  0  0  0  0  0  0  0  0
    5.3363   -1.0931   21.8122 H   0  0  0  0  0  0  0  0  0  0  0  0
    4.2621    0.5471   21.8549 H   0  0  0  0  0  0  0  0  0  0  0  0
    7.0325    0.2285   17.6988 H   0  0  0  0  0  0  0  0  0  0  0  0
    6.5682    2.8788   18.5044 H   0  0  0  0  0  0  0  0  0  0  0  0
    6.3865    2.6146   21.0049 H   0  0  0  0  0  0  0  0  0  0  0  0
  1  2  1  0
  2  3  1  0
  3  4  1  0
  4  5  1  0
  5  6  2  0
  5  7  1  0
  7  8  1  0
  8  9  2  0
  9 10  1  0
 10 11  1  0
  2 12  1  0
 12 13  1  0
 13 14  2  0
 13 15  1  0
 15 16  1  0
 16 17  2  0
 17 18  1  0
 18 19  2  0
 19 20  1  0
 11  7  2  0
 20 16  1  0
  1 21  1  0
  1 22  1  0
  1 23  1  0
  2 24  1  0
  3 25  1  0
  3 26  1  0
  4 27  1  0
  8 28  1  0
  9 29  1  0
 10 30  1  0
 12 31  1  0
 15 32  1  0
 15 33  1  0
 18 34  1  0
 19 35  1  0
 20 36  1  0
M  END
>  <Energy>  (1486) 
303.16499672794379

>  <compound_id>  (1486) 
10594

>  <target_id>  (1486) 
1

>  <reference_id>  (1486) 
63

>  <inspiration_ids>  (1486) 
[63, 7]

>  <energy_score>  (1486) 
218.99872928047023

>  <distance_score>  (1486) 
10.669650268528827

>  <path>  (1486) 
/opt/xchem-fragalysis-2/maxwin/BulkDock/SCRATCH/511021/C10594-P63/C10594-P63.minimised.mol

>  <scratch_subdir>  (1486) 
/opt/xchem-fragalysis-2/maxwin/BulkDock/SCRATCH/511021/C10594-P63

>  <fragmenstein_runtime>  (1486) 
11.973484992980957

>  <fragmenstein_outcome>  (1486) 
too moved

>  <fragmenstein_mode>  (1486) 
expansion

>  <fragmenstein_error>  (1486) 


$$$$
C10594-P7
     RDKit          3D

 36 37  0  0  0  0  0  0  0  0999 V2000
    3.0393    3.5929   25.3045 C   0  0  0  0  0  0  0  0  0  0  0  0
    2.3702    3.1957   23.9781 C   0  0  0  0  0  0  0  0  0  0  0  0
    0.8364    3.1703   24.1673 C   0  0  0  0  0  0  0  0  0  0  0  0
    0.3048    2.5780   25.3857 N   0  0  0  0  0  0  0  0  0  0  0  0
   -0.9800    2.6950   26.0008 C   0  0  0  0  0  0  0  0  0  0  0  0
   -1.9215    3.3706   25.7148 O   0  0  0  0  0  0  0  0  0  0  0  0
   -1.1092    1.8028   27.1959 C   0  0  0  0  0  0  0  0  0  0  0  0
   -2.2071    1.7728   28.0951 C   0  0  0  0  0  0  0  0  0  0  0  0
   -1.9391    0.7805   29.0071 C   0  0  0  0  0  0  0  0  0  0  0  0
   -0.7508    0.2508   28.6157 N   0  0  0  0  0  0  0  0  0  0  0  0
   -0.1958    0.8816   27.5575 N   0  0  0  0  0  0  0  0  0  0  0  0
    3.2215    2.2043   23.2669 N   0  0  0  0  0  0  0  0  0  0  0  0
    3.1826    1.7178   21.8768 C   0  0  0  0  0  0  0  0  0  0  0  0
    2.3986    1.9405   20.9972 O   0  0  0  0  0  0  0  0  0  0  0  0
    4.8097    0.6664   21.5472 C   0  0  0  0  0  0  0  0  0  0  0  0
    5.9633    1.0229   20.0423 C   0  0  0  0  0  0  0  0  0  0  0  0
    6.9332    0.2827   19.5046 N   0  0  0  0  0  0  0  0  0  0  0  0
    7.0645    0.6687   18.1625 C   0  0  0  0  0  0  0  0  0  0  0  0
    6.3775    1.8041   17.8972 C   0  0  0  0  0  0  0  0  0  0  0  0
    5.7332    2.0360   19.0612 N   0  0  0  0  0  0  0  0  0  0  0  0
    4.0401    4.0017   25.1337 H   0  0  0  0  0  0  0  0  0  0  0  0
    3.1370    2.7292   25.9708 H   0  0  0  0  0  0  0  0  0  0  0  0
    2.4692    4.3700   25.8255 H   0  0  0  0  0  0  0  0  0  0  0  0
    2.5053    4.0627   23.3139 H   0  0  0  0  0  0  0  0  0  0  0  0
    0.5164    4.2203   24.2455 H   0  0  0  0  0  0  0  0  0  0  0  0
    0.2717    2.8186   23.3022 H   0  0  0  0  0  0  0  0  0  0  0  0
    0.8890    1.9625   25.9528 H   0  0  0  0  0  0  0  0  0  0  0  0
   -3.0692    2.4185   28.0339 H   0  0  0  0  0  0  0  0  0  0  0  0
   -2.4806    0.4028   29.8610 H   0  0  0  0  0  0  0  0  0  0  0  0
   -0.2445   -0.5293   29.0237 H   0  0  0  0  0  0  0  0  0  0  0  0
    3.9854    1.7414   23.7600 H   0  0  0  0  0  0  0  0  0  0  0  0
    5.5470    1.0761   22.1918 H   0  0  0  0  0  0  0  0  0  0  0  0
    4.7396   -0.3624   21.8323 H   0  0  0  0  0  0  0  0  0  0  0  0
    7.7154    0.1623   17.4696 H   0  0  0  0  0  0  0  0  0  0  0  0
    6.2546    2.4192   17.0196 H   0  0  0  0  0  0  0  0  0  0  0  0
    4.9713    2.6803   19.1612 H   0  0  0  0  0  0  0  0  0  0  0  0
  1  2  1  0
  2  3  1  0
  3  4  1  0
  4  5  1  0
  5  6  2  0
  5  7  1  0
  7  8  1  0
  8  9  2  0
  9 10  1  0
 10 11  1  0
  2 12  1  0
 12 13  1  0
 13 14  2  0
 13 15  1  0
 15 16  1  0
 16 17  2  0
 17 18  1  0
 18 19  2  0
 19 20  1  0
 11  7  2  0
 20 16  1  0
  1 21  1  0
  1 22  1  0
  1 23  1  0
  2 24  1  0
  3 25  1  0
  3 26  1  0
  4 27  1  0
  8 28  1  0
  9 29  1  0
 10 30  1  0
 12 31  1  0
 15 32  1  0
 15 33  1  0
 18 34  1  0
 19 35  1  0
 20 36  1  0
M  END
>  <Energy>  (1487) 
154.4746602702335

>  <compound_id>  (1487) 
10594

>  <target_id>  (1487) 
1

>  <reference_id>  (1487) 
7

>  <inspiration_ids>  (1487) 
[63, 7]

>  <energy_score>  (1487) 
70.3083928227644

>  <distance_score>  (1487) 
11.375204314955546

>  <path>  (1487) 
/opt/xchem-fragalysis-2/maxwin/BulkDock/SCRATCH/511021/C10594-P7/C10594-P7.minimised.mol

>  <scratch_subdir>  (1487) 
/opt/xchem-fragalysis-2/maxwin/BulkDock/SCRATCH/511021/C10594-P7

>  <fragmenstein_runtime>  (1487) 
14.711734294891357

>  <fragmenstein_outcome>  (1487) 
too moved

>  <fragmenstein_mode>  (1487) 
expansion

>  <fragmenstein_error>  (1487) 


$$$$
C10595-P63
     RDKit          3D

 42 43  0  0  0  0  0  0  0  0999 V2000
    8.9249    2.0724   16.5404 C   0  0  0  0  0  0  0  0  0  0  0  0
    7.7181    2.4498   17.4057 C   0  0  0  0  0  0  0  0  0  0  0  0
    7.3627    1.3620   18.3556 C   0  0  0  0  0  0  0  0  0  0  0  0
    6.9469    0.1087   18.0911 C   0  0  0  0  0  0  0  0  0  0  0  0
    7.1714   -0.6739   19.2268 N   0  0  0  0  0  0  0  0  0  0  0  0
    6.7921   -0.0716   20.3564 C   0  0  0  0  0  0  0  0  0  0  0  0
    5.0538    0.2697   21.5442 C   0  0  0  0  0  0  0  0  0  0  0  0
    3.3199    1.4761   21.6772 C   0  0  0  0  0  0  0  0  0  0  0  0
    2.7534    1.7870   20.6836 O   0  0  0  0  0  0  0  0  0  0  0  0
    2.9573    1.9878   23.0908 N   0  0  0  0  0  0  0  0  0  0  0  0
    1.9425    3.0285   23.5681 C   0  0  0  0  0  0  0  0  0  0  0  0
    2.3712    4.3582   22.9026 C   0  0  0  0  0  0  0  0  0  0  0  0
    1.8958    3.2890   25.1182 C   0  0  0  0  0  0  0  0  0  0  0  0
    0.9969    2.5415   25.9934 N   0  0  0  0  0  0  0  0  0  0  0  0
    1.0178    2.3439   27.4208 C   0  0  0  0  0  0  0  0  0  0  0  0
    1.8217    2.6760   28.2425 O   0  0  0  0  0  0  0  0  0  0  0  0
   -0.2028    1.6155   27.9298 C   0  0  0  0  0  0  0  0  0  0  0  0
   -0.5433    1.4013   29.3093 C   0  0  0  0  0  0  0  0  0  0  0  0
   -1.6786    0.6300   29.3118 C   0  0  0  0  0  0  0  0  0  0  0  0
   -1.9521    0.3998   27.9981 N   0  0  0  0  0  0  0  0  0  0  0  0
   -1.1413    1.0542   27.1372 N   0  0  0  0  0  0  0  0  0  0  0  0
    7.4767    1.2909   19.8161 N   0  0  0  0  0  0  0  0  0  0  0  0
    8.7987    1.0976   16.0592 H   0  0  0  0  0  0  0  0  0  0  0  0
    9.8488    2.0434   17.1173 H   0  0  0  0  0  0  0  0  0  0  0  0
    9.0635    2.8256   15.7581 H   0  0  0  0  0  0  0  0  0  0  0  0
    7.8976    3.4012   17.9121 H   0  0  0  0  0  0  0  0  0  0  0  0
    6.8574    2.6291   16.7503 H   0  0  0  0  0  0  0  0  0  0  0  0
    6.6795   -0.2927   17.1207 H   0  0  0  0  0  0  0  0  0  0  0  0
    4.9583   -0.6865   22.0795 H   0  0  0  0  0  0  0  0  0  0  0  0
    5.5369    0.8317   22.2505 H   0  0  0  0  0  0  0  0  0  0  0  0
    3.5342    1.5006   23.7595 H   0  0  0  0  0  0  0  0  0  0  0  0
    0.9311    2.8883   23.1839 H   0  0  0  0  0  0  0  0  0  0  0  0
    1.6719    5.1642   23.1507 H   0  0  0  0  0  0  0  0  0  0  0  0
    3.3718    4.6643   23.2264 H   0  0  0  0  0  0  0  0  0  0  0  0
    2.3863    4.2649   21.8117 H   0  0  0  0  0  0  0  0  0  0  0  0
    2.8949    3.2265   25.5581 H   0  0  0  0  0  0  0  0  0  0  0  0
    1.5791    4.3274   25.2805 H   0  0  0  0  0  0  0  0  0  0  0  0
    0.1159    2.1977   25.6256 H   0  0  0  0  0  0  0  0  0  0  0  0
    0.0180    1.7522   30.1647 H   0  0  0  0  0  0  0  0  0  0  0  0
   -2.2689    0.2005   30.1066 H   0  0  0  0  0  0  0  0  0  0  0  0
   -2.6756   -0.1945   27.6088 H   0  0  0  0  0  0  0  0  0  0  0  0
    7.5470    2.0488   20.4859 H   0  0  0  0  0  0  0  0  0  0  0  0
  1  2  1  0
  2  3  1  0
  3  4  2  0
  4  5  1  0
  5  6  2  0
  6  7  1  0
  7  8  1  0
  8  9  2  0
  8 10  1  0
 10 11  1  0
 11 12  1  0
 11 13  1  0
 13 14  1  0
 14 15  1  0
 15 16  2  0
 15 17  1  0
 17 18  1  0
 18 19  2  0
 19 20  1  0
 20 21  1  0
  6 22  1  0
 22  3  1  0
 21 17  2  0
  1 23  1  0
  1 24  1  0
  1 25  1  0
  2 26  1  0
  2 27  1  0
  4 28  1  0
  7 29  1  0
  7 30  1  0
 10 31  1  0
 11 32  1  0
 12 33  1  0
 12 34  1  0
 12 35  1  0
 13 36  1  0
 13 37  1  0
 14 38  1  0
 18 39  1  0
 19 40  1  0
 20 41  1  0
 22 42  1  0
M  END
>  <Energy>  (1488) 
355.77224065811134

>  <compound_id>  (1488) 
10595

>  <target_id>  (1488) 
1

>  <reference_id>  (1488) 
63

>  <inspiration_ids>  (1488) 
[63, 7]

>  <energy_score>  (1488) 
275.14510502856007

>  <distance_score>  (1488) 
11.097538576347157

>  <path>  (1488) 
/opt/xchem-fragalysis-2/maxwin/BulkDock/SCRATCH/511021/C10595-P63/C10595-P63.minimised.mol

>  <scratch_subdir>  (1488) 
/opt/xchem-fragalysis-2/maxwin/BulkDock/SCRATCH/511021/C10595-P63

>  <fragmenstein_runtime>  (1488) 
13.804641008377075

>  <fragmenstein_outcome>  (1488) 
too moved

>  <fragmenstein_mode>  (1488) 
expansion

>  <fragmenstein_error>  (1488) 


$$$$
C10595-P7
     RDKit          3D

 42 43  0  0  0  0  0  0  0  0999 V2000
   11.7600   -0.9437   15.6691 C   0  0  0  0  0  0  0  0  0  0  0  0
   10.9668    0.3517   15.5071 C   0  0  0  0  0  0  0  0  0  0  0  0
    9.5592    0.2210   15.9768 C   0  0  0  0  0  0  0  0  0  0  0  0
    8.5251   -0.5482   15.5108 C   0  0  0  0  0  0  0  0  0  0  0  0
    7.4375   -0.4152   16.3339 N   0  0  0  0  0  0  0  0  0  0  0  0
    7.8260    0.2672   17.4029 C   0  0  0  0  0  0  0  0  0  0  0  0
    6.9134    0.5080   18.7216 C   0  0  0  0  0  0  0  0  0  0  0  0
    6.7409   -0.3945   20.4008 C   0  0  0  0  0  0  0  0  0  0  0  0
    7.6685   -1.1218   20.5582 O   0  0  0  0  0  0  0  0  0  0  0  0
    5.2635   -0.3079   21.5691 N   0  0  0  0  0  0  0  0  0  0  0  0
    4.7974   -1.4142   23.1717 C   0  0  0  0  0  0  0  0  0  0  0  0
    3.5418   -2.3768   23.6838 C   0  0  0  0  0  0  0  0  0  0  0  0
    4.9229   -0.8086   24.8390 C   0  0  0  0  0  0  0  0  0  0  0  0
    3.8558   -0.9089   25.9203 N   0  0  0  0  0  0  0  0  0  0  0  0
    3.2465    0.1065   26.7465 C   0  0  0  0  0  0  0  0  0  0  0  0
    3.4823    1.2779   26.8464 O   0  0  0  0  0  0  0  0  0  0  0  0
    2.0913   -0.4179   27.6111 C   0  0  0  0  0  0  0  0  0  0  0  0
    1.1427    0.3928   28.3397 C   0  0  0  0  0  0  0  0  0  0  0  0
    0.2228   -0.4693   28.8908 C   0  0  0  0  0  0  0  0  0  0  0  0
    0.6270   -1.7095   28.5021 N   0  0  0  0  0  0  0  0  0  0  0  0
    1.7768   -1.7201   27.7911 N   0  0  0  0  0  0  0  0  0  0  0  0
    8.9759    0.9482   16.9999 N   0  0  0  0  0  0  0  0  0  0  0  0
   11.2727   -1.7805   15.1574 H   0  0  0  0  0  0  0  0  0  0  0  0
   11.8762   -1.2101   16.7223 H   0  0  0  0  0  0  0  0  0  0  0  0
   12.7618   -0.8240   15.2440 H   0  0  0  0  0  0  0  0  0  0  0  0
   10.9602    0.6369   14.4481 H   0  0  0  0  0  0  0  0  0  0  0  0
   11.4753    1.1575   16.0485 H   0  0  0  0  0  0  0  0  0  0  0  0
    8.4917   -1.1932   14.6423 H   0  0  0  0  0  0  0  0  0  0  0  0
    7.1477    1.5758   18.7898 H   0  0  0  0  0  0  0  0  0  0  0  0
    6.0565    0.1114   18.2094 H   0  0  0  0  0  0  0  0  0  0  0  0
    4.6424    0.4418   21.2787 H   0  0  0  0  0  0  0  0  0  0  0  0
    5.4847   -2.1924   23.0350 H   0  0  0  0  0  0  0  0  0  0  0  0
    3.8786   -3.0082   24.5186 H   0  0  0  0  0  0  0  0  0  0  0  0
    2.9706   -2.9978   23.0008 H   0  0  0  0  0  0  0  0  0  0  0  0
    2.8115   -1.8054   24.2257 H   0  0  0  0  0  0  0  0  0  0  0  0
    5.7595   -1.3368   25.2959 H   0  0  0  0  0  0  0  0  0  0  0  0
    5.0482    0.2362   24.8064 H   0  0  0  0  0  0  0  0  0  0  0  0
    3.4549   -1.8144   26.1585 H   0  0  0  0  0  0  0  0  0  0  0  0
    1.1481    1.4730   28.3966 H   0  0  0  0  0  0  0  0  0  0  0  0
   -0.6661   -0.3127   29.4831 H   0  0  0  0  0  0  0  0  0  0  0  0
    0.1732   -2.5989   28.6790 H   0  0  0  0  0  0  0  0  0  0  0  0
    9.4093    1.7270   17.4719 H   0  0  0  0  0  0  0  0  0  0  0  0
  1  2  1  0
  2  3  1  0
  3  4  2  0
  4  5  1  0
  5  6  2  0
  6  7  1  0
  7  8  1  0
  8  9  2  0
  8 10  1  0
 10 11  1  0
 11 12  1  0
 11 13  1  0
 13 14  1  0
 14 15  1  0
 15 16  2  0
 15 17  1  0
 17 18  1  0
 18 19  2  0
 19 20  1  0
 20 21  1  0
  6 22  1  0
 22  3  1  0
 21 17  2  0
  1 23  1  0
  1 24  1  0
  1 25  1  0
  2 26  1  0
  2 27  1  0
  4 28  1  0
  7 29  1  0
  7 30  1  0
 10 31  1  0
 11 32  1  0
 12 33  1  0
 12 34  1  0
 12 35  1  0
 13 36  1  0
 13 37  1  0
 14 38  1  0
 18 39  1  0
 19 40  1  0
 20 41  1  0
 22 42  1  0
M  END
>  <Energy>  (1489) 
368.03336090115084

>  <compound_id>  (1489) 
10595

>  <target_id>  (1489) 
1

>  <reference_id>  (1489) 
7

>  <inspiration_ids>  (1489) 
[63, 7]

>  <energy_score>  (1489) 
287.406225271596

>  <distance_score>  (1489) 
11.50358554553044

>  <path>  (1489) 
/opt/xchem-fragalysis-2/maxwin/BulkDock/SCRATCH/511021/C10595-P7/C10595-P7.minimised.mol

>  <scratch_subdir>  (1489) 
/opt/xchem-fragalysis-2/maxwin/BulkDock/SCRATCH/511021/C10595-P7

>  <fragmenstein_runtime>  (1489) 
14.225498676300049

>  <fragmenstein_outcome>  (1489) 
too moved

>  <fragmenstein_mode>  (1489) 
expansion

>  <fragmenstein_error>  (1489) 


$$$$
C46834-P63
     RDKit          3D

 46 48  0  0  0  0  0  0  0  0999 V2000
   -1.5173    3.1327   27.5570 C   0  0  0  0  0  0  0  0  0  0  0  0
   -0.3673    2.1548   27.3166 C   0  0  0  0  0  0  0  0  0  0  0  0
    0.2291    1.6413   28.6753 C   0  0  0  0  0  0  0  0  0  0  0  0
   -0.7101    1.0554   29.6565 N   0  0  0  0  0  0  0  0  0  0  0  0
   -0.8852    1.3098   31.0715 C   0  0  0  0  0  0  0  0  0  0  0  0
   -0.3668    2.1164   31.7894 O   0  0  0  0  0  0  0  0  0  0  0  0
   -1.9506    0.4318   31.6951 C   0  0  0  0  0  0  0  0  0  0  0  0
   -2.3772   -0.7274   31.1275 N   0  0  0  0  0  0  0  0  0  0  0  0
   -3.2667   -1.2611   32.0111 N   0  0  0  0  0  0  0  0  0  0  0  0
   -3.4946   -0.4434   33.0520 C   0  0  0  0  0  0  0  0  0  0  0  0
   -2.6626    0.6272   32.9135 C   0  0  0  0  0  0  0  0  0  0  0  0
   -2.7955    1.5418   34.0675 C   0  0  0  0  0  0  0  0  0  0  0  0
   -4.0930    0.9987   34.7689 C   0  0  0  0  0  0  0  0  0  0  0  0
   -4.3185   -0.4678   34.2644 C   0  0  0  0  0  0  0  0  0  0  0  0
    0.6150    2.7960   26.3879 N   0  0  0  0  0  0  0  0  0  0  0  0
    0.5296    3.0899   24.9501 C   0  0  0  0  0  0  0  0  0  0  0  0
   -0.3202    2.8157   24.1461 O   0  0  0  0  0  0  0  0  0  0  0  0
    1.7297    3.9966   24.4865 C   0  0  0  0  0  0  0  0  0  0  0  0
    2.3210    3.8107   23.0749 C   0  0  0  0  0  0  0  0  0  0  0  0
    3.6262    3.8723   22.8111 N   0  0  0  0  0  0  0  0  0  0  0  0
    3.7915    3.5901   21.4746 C   0  0  0  0  0  0  0  0  0  0  0  0
    2.5710    3.4829   20.8713 C   0  0  0  0  0  0  0  0  0  0  0  0
    1.6529    3.7240   21.8683 N   0  0  0  0  0  0  0  0  0  0  0  0
    0.2545    3.9752   21.6179 C   0  0  0  0  0  0  0  0  0  0  0  0
   -1.1746    4.0151   28.1080 H   0  0  0  0  0  0  0  0  0  0  0  0
   -2.3244    2.6593   28.1235 H   0  0  0  0  0  0  0  0  0  0  0  0
   -1.9431    3.4802   26.6093 H   0  0  0  0  0  0  0  0  0  0  0  0
   -0.7800    1.2968   26.7744 H   0  0  0  0  0  0  0  0  0  0  0  0
    0.7484    2.4649   29.1790 H   0  0  0  0  0  0  0  0  0  0  0  0
    0.9791    0.8703   28.4666 H   0  0  0  0  0  0  0  0  0  0  0  0
   -1.2558    0.2338   29.3968 H   0  0  0  0  0  0  0  0  0  0  0  0
   -3.6725   -2.1668   31.7992 H   0  0  0  0  0  0  0  0  0  0  0  0
   -2.9135    2.5891   33.7856 H   0  0  0  0  0  0  0  0  0  0  0  0
   -1.9343    1.4421   34.7364 H   0  0  0  0  0  0  0  0  0  0  0  0
   -4.9468    1.6158   34.4582 H   0  0  0  0  0  0  0  0  0  0  0  0
   -4.0270    1.0555   35.8599 H   0  0  0  0  0  0  0  0  0  0  0  0
   -3.9341   -1.1888   34.9922 H   0  0  0  0  0  0  0  0  0  0  0  0
   -5.3759   -0.6637   34.0696 H   0  0  0  0  0  0  0  0  0  0  0  0
    1.4361    3.2525   26.7719 H   0  0  0  0  0  0  0  0  0  0  0  0
    1.3887    5.0355   24.5742 H   0  0  0  0  0  0  0  0  0  0  0  0
    2.5592    3.8699   25.1923 H   0  0  0  0  0  0  0  0  0  0  0  0
    4.7743    3.4941   21.0350 H   0  0  0  0  0  0  0  0  0  0  0  0
    2.2731    3.2955   19.8496 H   0  0  0  0  0  0  0  0  0  0  0  0
    0.1434    4.3954   20.6140 H   0  0  0  0  0  0  0  0  0  0  0  0
   -0.1192    4.7017   22.3432 H   0  0  0  0  0  0  0  0  0  0  0  0
   -0.2931    3.0354   21.6815 H   0  0  0  0  0  0  0  0  0  0  0  0
  1  2  1  0
  2  3  1  0
  3  4  1  0
  4  5  1  0
  5  6  2  0
  5  7  1  0
  7  8  2  0
  8  9  1  0
  9 10  1  0
 10 11  2  0
 11 12  1  0
 12 13  1  0
 13 14  1  0
  2 15  1  0
 15 16  1  0
 16 17  2  0
 16 18  1  0
 18 19  1  0
 19 20  2  0
 20 21  1  0
 21 22  2  0
 22 23  1  0
 23 24  1  0
 11  7  1  0
 23 19  1  0
 14 10  1  0
  1 25  1  0
  1 26  1  0
  1 27  1  0
  2 28  1  0
  3 29  1  0
  3 30  1  0
  4 31  1  0
  9 32  1  0
 12 33  1  0
 12 34  1  0
 13 35  1  0
 13 36  1  0
 14 37  1  0
 14 38  1  0
 15 39  1  0
 18 40  1  0
 18 41  1  0
 21 42  1  0
 22 43  1  0
 24 44  1  0
 24 45  1  0
 24 46  1  0
M  END
>  <Energy>  (1490) 
85.936696930608505

>  <compound_id>  (1490) 
46834

>  <target_id>  (1490) 
1

>  <reference_id>  (1490) 
63

>  <inspiration_ids>  (1490) 
[63, 7]

>  <energy_score>  (1490) 
-10.593554381026593

>  <distance_score>  (1490) 
11.473125844180217

>  <path>  (1490) 
/opt/xchem-fragalysis-2/maxwin/BulkDock/SCRATCH/511021/C46834-P63/C46834-P63.minimised.mol

>  <scratch_subdir>  (1490) 
/opt/xchem-fragalysis-2/maxwin/BulkDock/SCRATCH/511021/C46834-P63

>  <fragmenstein_runtime>  (1490) 
18.26591396331787

>  <fragmenstein_outcome>  (1490) 
too moved

>  <fragmenstein_mode>  (1490) 
expansion

>  <fragmenstein_error>  (1490) 


$$$$
C46834-P7
     RDKit          3D

 46 48  0  0  0  0  0  0  0  0999 V2000
    3.2744   -2.3734   25.7668 C   0  0  0  0  0  0  0  0  0  0  0  0
    2.1053   -2.0566   26.7171 C   0  0  0  0  0  0  0  0  0  0  0  0
    0.4210   -2.5435   26.2351 C   0  0  0  0  0  0  0  0  0  0  0  0
   -0.2887   -2.8662   27.7227 N   0  0  0  0  0  0  0  0  0  0  0  0
   -0.1410   -2.1943   29.0242 C   0  0  0  0  0  0  0  0  0  0  0  0
    0.5843   -1.3008   29.3637 O   0  0  0  0  0  0  0  0  0  0  0  0
   -1.1106   -2.5917   30.1110 C   0  0  0  0  0  0  0  0  0  0  0  0
   -1.1969   -3.8363   30.6429 N   0  0  0  0  0  0  0  0  0  0  0  0
   -1.9421   -3.7030   31.7759 N   0  0  0  0  0  0  0  0  0  0  0  0
   -2.4283   -2.4596   31.9226 C   0  0  0  0  0  0  0  0  0  0  0  0
   -1.8737   -1.7050   30.9330 C   0  0  0  0  0  0  0  0  0  0  0  0
   -2.1539   -0.2689   31.1403 C   0  0  0  0  0  0  0  0  0  0  0  0
   -2.7811   -0.2603   32.5829 C   0  0  0  0  0  0  0  0  0  0  0  0
   -3.1896   -1.7311   32.9385 C   0  0  0  0  0  0  0  0  0  0  0  0
    2.4516   -0.6232   27.0671 N   0  0  0  0  0  0  0  0  0  0  0  0
    1.6075    0.5472   27.2537 C   0  0  0  0  0  0  0  0  0  0  0  0
    0.4092    0.6598   27.2565 O   0  0  0  0  0  0  0  0  0  0  0  0
    2.4988    1.8052   27.3601 C   0  0  0  0  0  0  0  0  0  0  0  0
    2.7504    2.4976   26.0302 C   0  0  0  0  0  0  0  0  0  0  0  0
    2.2751    2.1878   24.8383 N   0  0  0  0  0  0  0  0  0  0  0  0
    2.6850    3.1631   23.9674 C   0  0  0  0  0  0  0  0  0  0  0  0
    3.4291    4.1063   24.6297 C   0  0  0  0  0  0  0  0  0  0  0  0
    3.5040    3.6528   25.9212 N   0  0  0  0  0  0  0  0  0  0  0  0
    4.1963    4.3173   26.9993 C   0  0  0  0  0  0  0  0  0  0  0  0
    3.3604   -1.6266   24.9762 H   0  0  0  0  0  0  0  0  0  0  0  0
    3.2315   -3.3372   25.2835 H   0  0  0  0  0  0  0  0  0  0  0  0
    4.2097   -2.3096   26.3289 H   0  0  0  0  0  0  0  0  0  0  0  0
    2.2902   -2.6293   27.6347 H   0  0  0  0  0  0  0  0  0  0  0  0
   -0.1450   -2.9279   24.3683 H   0  0  0  0  0  0  0  0  0  0  0  0
    0.1206   -1.4788   26.5860 H   0  0  0  0  0  0  0  0  0  0  0  0
   -1.0610   -3.5257   27.7747 H   0  0  0  0  0  0  0  0  0  0  0  0
   -2.0395   -4.5107   32.3823 H   0  0  0  0  0  0  0  0  0  0  0  0
   -1.2458    0.3405   31.1135 H   0  0  0  0  0  0  0  0  0  0  0  0
   -2.8586    0.1201   30.4039 H   0  0  0  0  0  0  0  0  0  0  0  0
   -3.6305    0.4242   32.6599 H   0  0  0  0  0  0  0  0  0  0  0  0
   -2.0213    0.0826   33.2976 H   0  0  0  0  0  0  0  0  0  0  0  0
   -2.9069   -1.9848   33.9633 H   0  0  0  0  0  0  0  0  0  0  0  0
   -4.2662   -1.8744   32.8049 H   0  0  0  0  0  0  0  0  0  0  0  0
    3.4199   -0.3323   27.0440 H   0  0  0  0  0  0  0  0  0  0  0  0
    3.4539    1.5512   27.8336 H   0  0  0  0  0  0  0  0  0  0  0  0
    1.9896    2.5013   28.0381 H   0  0  0  0  0  0  0  0  0  0  0  0
    2.4131    3.1313   22.9202 H   0  0  0  0  0  0  0  0  0  0  0  0
    3.9028    5.0204   24.3019 H   0  0  0  0  0  0  0  0  0  0  0  0
    4.9186    3.6192   27.4294 H   0  0  0  0  0  0  0  0  0  0  0  0
    3.4615    4.6260   27.7468 H   0  0  0  0  0  0  0  0  0  0  0  0
    4.7203    5.1944   26.6109 H   0  0  0  0  0  0  0  0  0  0  0  0
  1  2  1  0
  2  3  1  0
  3  4  1  0
  4  5  1  0
  5  6  2  0
  5  7  1  0
  7  8  2  0
  8  9  1  0
  9 10  1  0
 10 11  2  0
 11 12  1  0
 12 13  1  0
 13 14  1  0
  2 15  1  0
 15 16  1  0
 16 17  2  0
 16 18  1  0
 18 19  1  0
 19 20  2  0
 20 21  1  0
 21 22  2  0
 22 23  1  0
 23 24  1  0
 11  7  1  0
 23 19  1  0
 14 10  1  0
  1 25  1  0
  1 26  1  0
  1 27  1  0
  2 28  1  0
  3 29  1  0
  3 30  1  0
  4 31  1  0
  9 32  1  0
 12 33  1  0
 12 34  1  0
 13 35  1  0
 13 36  1  0
 14 37  1  0
 14 38  1  0
 15 39  1  0
 18 40  1  0
 18 41  1  0
 21 42  1  0
 22 43  1  0
 24 44  1  0
 24 45  1  0
 24 46  1  0
M  END
>  <Energy>  (1491) 
481.45142691258502

>  <compound_id>  (1491) 
46834

>  <target_id>  (1491) 
1

>  <reference_id>  (1491) 
7

>  <inspiration_ids>  (1491) 
[63, 7]

>  <energy_score>  (1491) 
384.9211756009489

>  <distance_score>  (1491) 
13.00537324457401

>  <path>  (1491) 
/opt/xchem-fragalysis-2/maxwin/BulkDock/SCRATCH/511021/C46834-P7/C46834-P7.minimised.mol

>  <scratch_subdir>  (1491) 
/opt/xchem-fragalysis-2/maxwin/BulkDock/SCRATCH/511021/C46834-P7

>  <fragmenstein_runtime>  (1491) 
22.60683822631836

>  <fragmenstein_outcome>  (1491) 
too moved

>  <fragmenstein_mode>  (1491) 
expansion

>  <fragmenstein_error>  (1491) 


$$$$
C10596-P63
     RDKit          3D

 43 45  0  0  0  0  0  0  0  0999 V2000
   -0.4841   -2.6255   22.9559 C   0  0  0  0  0  0  0  0  0  0  0  0
   -0.7517   -4.4518   23.6323 C   0  0  0  0  0  0  0  0  0  0  0  0
   -2.5075   -3.3879   24.3759 C   0  0  0  0  0  0  0  0  0  0  0  0
   -3.3746   -2.3466   25.8919 N   0  0  0  0  0  0  0  0  0  0  0  0
   -4.6194   -2.8255   27.1408 C   0  0  0  0  0  0  0  0  0  0  0  0
   -4.9467   -3.7982   26.9313 O   0  0  0  0  0  0  0  0  0  0  0  0
   -5.3076   -2.4123   28.2784 C   0  0  0  0  0  0  0  0  0  0  0  0
   -7.0949   -2.4919   28.0396 C   0  0  0  0  0  0  0  0  0  0  0  0
   -7.7792   -2.8905   29.1385 C   0  0  0  0  0  0  0  0  0  0  0  0
   -6.7643   -3.0791   29.9853 N   0  0  0  0  0  0  0  0  0  0  0  0
   -5.5424   -3.2259   29.4319 N   0  0  0  0  0  0  0  0  0  0  0  0
    0.7227   -4.4897   22.2082 N   0  0  0  0  0  0  0  0  0  0  0  0
    1.2704   -5.6309   21.3480 C   0  0  0  0  0  0  0  0  0  0  0  0
    1.0143   -6.8306   21.3939 O   0  0  0  0  0  0  0  0  0  0  0  0
    2.4155   -5.2662   19.8006 C   0  0  0  0  0  0  0  0  0  0  0  0
    2.3726   -3.9363   18.2131 C   0  0  0  0  0  0  0  0  0  0  0  0
    1.5856   -2.8798   17.7841 N   0  0  0  0  0  0  0  0  0  0  0  0
    2.1489   -1.9914   16.8870 C   0  0  0  0  0  0  0  0  0  0  0  0
    3.3617   -2.4423   16.5206 C   0  0  0  0  0  0  0  0  0  0  0  0
    3.6059   -3.4946   17.3624 N   0  0  0  0  0  0  0  0  0  0  0  0
   -0.4446   -5.8563   24.5851 C   0  0  0  0  0  0  0  0  0  0  0  0
   -1.2633   -7.0715   24.5137 C   0  0  0  0  0  0  0  0  0  0  0  0
    0.1058   -7.1823   24.0813 C   0  0  0  0  0  0  0  0  0  0  0  0
   -0.5127   -2.4535   21.9049 H   0  0  0  0  0  0  0  0  0  0  0  0
   -1.4012   -2.0724   23.0911 H   0  0  0  0  0  0  0  0  0  0  0  0
    0.5429   -2.3315   22.8343 H   0  0  0  0  0  0  0  0  0  0  0  0
   -2.9654   -2.7387   23.6035 H   0  0  0  0  0  0  0  0  0  0  0  0
   -3.0949   -4.2406   24.3471 H   0  0  0  0  0  0  0  0  0  0  0  0
   -3.1314   -1.3752   26.0561 H   0  0  0  0  0  0  0  0  0  0  0  0
   -7.5637   -2.2103   27.1028 H   0  0  0  0  0  0  0  0  0  0  0  0
   -8.8279   -2.9472   29.3820 H   0  0  0  0  0  0  0  0  0  0  0  0
   -6.7966   -2.9565   30.9865 H   0  0  0  0  0  0  0  0  0  0  0  0
    1.2066   -3.6326   21.9634 H   0  0  0  0  0  0  0  0  0  0  0  0
    3.4881   -5.1981   19.9723 H   0  0  0  0  0  0  0  0  0  0  0  0
    2.3394   -6.3167   19.5241 H   0  0  0  0  0  0  0  0  0  0  0  0
    1.5850   -1.1456   16.5185 H   0  0  0  0  0  0  0  0  0  0  0  0
    4.0535   -2.1163   15.7587 H   0  0  0  0  0  0  0  0  0  0  0  0
    4.2724   -4.2106   17.1497 H   0  0  0  0  0  0  0  0  0  0  0  0
   -0.2399   -5.7294   25.6582 H   0  0  0  0  0  0  0  0  0  0  0  0
   -1.7658   -7.4584   23.6438 H   0  0  0  0  0  0  0  0  0  0  0  0
   -1.4976   -7.5223   25.4714 H   0  0  0  0  0  0  0  0  0  0  0  0
    0.4921   -7.9478   24.6977 H   0  0  0  0  0  0  0  0  0  0  0  0
    0.2460   -7.5592   23.0872 H   0  0  0  0  0  0  0  0  0  0  0  0
  1  2  1  0
  2  3  1  0
  3  4  1  0
  4  5  1  0
  5  6  2  0
  5  7  1  0
  7  8  1  0
  8  9  2  0
  9 10  1  0
 10 11  1  0
  2 12  1  0
 12 13  1  0
 13 14  2  0
 13 15  1  0
 15 16  1  0
 16 17  2  0
 17 18  1  0
 18 19  2  0
 19 20  1  0
  2 21  1  0
 21 22  1  0
 22 23  1  0
 11  7  2  0
 20 16  1  0
 23 21  1  0
  1 24  1  0
  1 25  1  0
  1 26  1  0
  3 27  1  0
  3 28  1  0
  4 29  1  0
  8 30  1  0
  9 31  1  0
 10 32  1  0
 12 33  1  0
 15 34  1  0
 15 35  1  0
 18 36  1  0
 19 37  1  0
 20 38  1  0
 21 39  1  0
 22 40  1  0
 22 41  1  0
 23 42  1  0
 23 43  1  0
M  END
>  <Energy>  (1492) 
1051.2158060347526

>  <compound_id>  (1492) 
10596

>  <target_id>  (1492) 
1

>  <reference_id>  (1492) 
63

>  <inspiration_ids>  (1492) 
[63, 7]

>  <energy_score>  (1492) 
926.7815653886662

>  <distance_score>  (1492) 
10.152255451905972

>  <path>  (1492) 
/opt/xchem-fragalysis-2/maxwin/BulkDock/SCRATCH/511021/C10596-P63/C10596-P63.minimised.mol

>  <scratch_subdir>  (1492) 
/opt/xchem-fragalysis-2/maxwin/BulkDock/SCRATCH/511021/C10596-P63

>  <fragmenstein_runtime>  (1492) 
22.971531867980957

>  <fragmenstein_outcome>  (1492) 
too moved

>  <fragmenstein_mode>  (1492) 
expansion

>  <fragmenstein_error>  (1492) 


$$$$
C10596-P7
     RDKit          3D

 43 45  0  0  0  0  0  0  0  0999 V2000
   -1.5822   -5.9961   24.3962 C   0  0  0  0  0  0  0  0  0  0  0  0
   -0.1240   -6.2900   24.1788 C   0  0  0  0  0  0  0  0  0  0  0  0
   -0.0231   -6.2499   26.0904 C   0  0  0  0  0  0  0  0  0  0  0  0
   -0.5915   -5.3463   27.2026 N   0  0  0  0  0  0  0  0  0  0  0  0
    0.0892   -4.3892   28.1215 C   0  0  0  0  0  0  0  0  0  0  0  0
    1.2335   -4.0312   28.1648 O   0  0  0  0  0  0  0  0  0  0  0  0
   -0.7385   -3.8341   29.2624 C   0  0  0  0  0  0  0  0  0  0  0  0
   -0.6173   -4.1918   30.6498 C   0  0  0  0  0  0  0  0  0  0  0  0
   -1.4266   -3.3273   31.3532 C   0  0  0  0  0  0  0  0  0  0  0  0
   -1.9100   -2.4606   30.4237 N   0  0  0  0  0  0  0  0  0  0  0  0
   -1.5495   -2.7592   29.1634 N   0  0  0  0  0  0  0  0  0  0  0  0
    0.7923   -5.4673   22.8096 N   0  0  0  0  0  0  0  0  0  0  0  0
    1.2882   -6.0368   21.2790 C   0  0  0  0  0  0  0  0  0  0  0  0
    1.1243   -7.1664   20.9864 O   0  0  0  0  0  0  0  0  0  0  0  0
    2.1335   -5.1434   19.8384 C   0  0  0  0  0  0  0  0  0  0  0  0
    1.9490   -3.8054   18.2187 C   0  0  0  0  0  0  0  0  0  0  0  0
    1.1216   -2.6360   18.0652 N   0  0  0  0  0  0  0  0  0  0  0  0
    1.6209   -1.6873   17.1712 C   0  0  0  0  0  0  0  0  0  0  0  0
    2.8272   -2.0659   16.6843 C   0  0  0  0  0  0  0  0  0  0  0  0
    3.1822   -3.1329   17.4444 N   0  0  0  0  0  0  0  0  0  0  0  0
   -0.2273   -7.7934   23.5483 C   0  0  0  0  0  0  0  0  0  0  0  0
   -1.5886   -8.4310   22.8294 C   0  0  0  0  0  0  0  0  0  0  0  0
   -0.3355   -8.6505   22.1678 C   0  0  0  0  0  0  0  0  0  0  0  0
   -1.8595   -4.9816   24.2320 H   0  0  0  0  0  0  0  0  0  0  0  0
   -2.3194   -6.4531   23.7802 H   0  0  0  0  0  0  0  0  0  0  0  0
   -1.8758   -6.4330   25.3512 H   0  0  0  0  0  0  0  0  0  0  0  0
   -0.2084   -7.2742   26.4417 H   0  0  0  0  0  0  0  0  0  0  0  0
    0.9317   -5.8494   26.3510 H   0  0  0  0  0  0  0  0  0  0  0  0
   -1.5450   -5.4739   27.5056 H   0  0  0  0  0  0  0  0  0  0  0  0
    0.0144   -4.9702   31.0556 H   0  0  0  0  0  0  0  0  0  0  0  0
   -1.6320   -3.2126   32.4077 H   0  0  0  0  0  0  0  0  0  0  0  0
   -2.4766   -1.6328   30.5731 H   0  0  0  0  0  0  0  0  0  0  0  0
    1.0953   -4.4983   22.9013 H   0  0  0  0  0  0  0  0  0  0  0  0
    3.2449   -5.2149   19.9606 H   0  0  0  0  0  0  0  0  0  0  0  0
    2.2829   -6.1821   19.5121 H   0  0  0  0  0  0  0  0  0  0  0  0
    1.0314   -0.8141   16.9271 H   0  0  0  0  0  0  0  0  0  0  0  0
    3.4916   -1.6317   15.9530 H   0  0  0  0  0  0  0  0  0  0  0  0
    4.0216   -3.6630   17.3450 H   0  0  0  0  0  0  0  0  0  0  0  0
    0.5731   -8.2287   24.0713 H   0  0  0  0  0  0  0  0  0  0  0  0
   -2.1689   -9.2447   23.2067 H   0  0  0  0  0  0  0  0  0  0  0  0
   -2.3223   -8.0094   22.1596 H   0  0  0  0  0  0  0  0  0  0  0  0
   -0.0315   -9.6935   22.1151 H   0  0  0  0  0  0  0  0  0  0  0  0
   -0.4067   -8.3665   21.1324 H   0  0  0  0  0  0  0  0  0  0  0  0
  1  2  1  0
  2  3  1  0
  3  4  1  0
  4  5  1  0
  5  6  2  0
  5  7  1  0
  7  8  1  0
  8  9  2  0
  9 10  1  0
 10 11  1  0
  2 12  1  0
 12 13  1  0
 13 14  2  0
 13 15  1  0
 15 16  1  0
 16 17  2  0
 17 18  1  0
 18 19  2  0
 19 20  1  0
  2 21  1  0
 21 22  1  0
 22 23  1  0
 11  7  2  0
 20 16  1  0
 23 21  1  0
  1 24  1  0
  1 25  1  0
  1 26  1  0
  3 27  1  0
  3 28  1  0
  4 29  1  0
  8 30  1  0
  9 31  1  0
 10 32  1  0
 12 33  1  0
 15 34  1  0
 15 35  1  0
 18 36  1  0
 19 37  1  0
 20 38  1  0
 21 39  1  0
 22 40  1  0
 22 41  1  0
 23 42  1  0
 23 43  1  0
M  END
>  <Energy>  (1493) 
580.83227742217309

>  <compound_id>  (1493) 
10596

>  <target_id>  (1493) 
1

>  <reference_id>  (1493) 
7

>  <inspiration_ids>  (1493) 
[63, 7]

>  <energy_score>  (1493) 
456.39803677606585

>  <distance_score>  (1493) 
12.134900517996353

>  <path>  (1493) 
/opt/xchem-fragalysis-2/maxwin/BulkDock/SCRATCH/511021/C10596-P7/C10596-P7.minimised.mol

>  <scratch_subdir>  (1493) 
/opt/xchem-fragalysis-2/maxwin/BulkDock/SCRATCH/511021/C10596-P7

>  <fragmenstein_runtime>  (1493) 
20.176707983016968

>  <fragmenstein_outcome>  (1493) 
too moved

>  <fragmenstein_mode>  (1493) 
expansion

>  <fragmenstein_error>  (1493) 


$$$$
C8130-P63
     RDKit          3D

 45 46  0  0  0  0  0  0  0  0999 V2000
    3.7671   -0.3466   27.5348 C   0  0  0  0  0  0  0  0  0  0  0  0
    4.1953   -1.4449   28.5031 C   0  0  0  0  0  0  0  0  0  0  0  0
    3.6003   -1.2162   29.9315 C   0  0  0  0  0  0  0  0  0  0  0  0
    2.1561   -1.1146   30.1574 N   0  0  0  0  0  0  0  0  0  0  0  0
    1.2931   -1.7913   31.1075 C   0  0  0  0  0  0  0  0  0  0  0  0
    1.5304   -2.6642   31.8946 O   0  0  0  0  0  0  0  0  0  0  0  0
   -0.1447   -1.1659   31.1310 C   0  0  0  0  0  0  0  0  0  0  0  0
   -0.9540   -1.6943   32.3498 C   0  0  0  0  0  0  0  0  0  0  0  0
   -2.3098   -1.0900   32.6696 C   0  0  0  0  0  0  0  0  0  0  0  0
   -2.9773    0.0671   32.3269 C   0  0  0  0  0  0  0  0  0  0  0  0
   -4.1947    0.0332   33.0468 C   0  0  0  0  0  0  0  0  0  0  0  0
   -4.3203   -1.0705   33.7758 N   0  0  0  0  0  0  0  0  0  0  0  0
   -3.1502   -1.7054   33.5745 N   0  0  0  0  0  0  0  0  0  0  0  0
    5.7511   -1.4847   28.6545 C   0  0  0  0  0  0  0  0  0  0  0  0
    6.6241   -1.6857   27.5035 N   0  0  0  0  0  0  0  0  0  0  0  0
    7.9791   -1.2540   27.2581 C   0  0  0  0  0  0  0  0  0  0  0  0
    8.7013   -0.5540   27.9042 O   0  0  0  0  0  0  0  0  0  0  0  0
    8.6006   -1.8223   26.0259 C   0  0  0  0  0  0  0  0  0  0  0  0
    8.0892   -2.3794   24.8583 C   0  0  0  0  0  0  0  0  0  0  0  0
    9.0620   -2.7495   23.9594 N   0  0  0  0  0  0  0  0  0  0  0  0
   10.1886   -2.4191   24.5444 C   0  0  0  0  0  0  0  0  0  0  0  0
    9.9696   -1.8313   25.7571 N   0  0  0  0  0  0  0  0  0  0  0  0
   11.0257   -1.3372   26.6109 C   0  0  0  0  0  0  0  0  0  0  0  0
    4.0983    0.6389   27.8786 H   0  0  0  0  0  0  0  0  0  0  0  0
    4.1901   -0.5185   26.5396 H   0  0  0  0  0  0  0  0  0  0  0  0
    2.6778   -0.3214   27.4291 H   0  0  0  0  0  0  0  0  0  0  0  0
    3.8431   -2.4075   28.1152 H   0  0  0  0  0  0  0  0  0  0  0  0
    3.9530   -2.0202   30.5891 H   0  0  0  0  0  0  0  0  0  0  0  0
    4.0093   -0.2825   30.3371 H   0  0  0  0  0  0  0  0  0  0  0  0
    1.5972   -0.4840   29.5934 H   0  0  0  0  0  0  0  0  0  0  0  0
   -0.0483   -0.0763   31.1938 H   0  0  0  0  0  0  0  0  0  0  0  0
   -0.6543   -1.4226   30.1963 H   0  0  0  0  0  0  0  0  0  0  0  0
   -1.0932   -2.7766   32.2199 H   0  0  0  0  0  0  0  0  0  0  0  0
   -0.3400   -1.5716   33.2529 H   0  0  0  0  0  0  0  0  0  0  0  0
   -2.6195    0.8338   31.6559 H   0  0  0  0  0  0  0  0  0  0  0  0
   -5.0009    0.7525   33.0673 H   0  0  0  0  0  0  0  0  0  0  0  0
   -2.9931   -2.5855   34.0658 H   0  0  0  0  0  0  0  0  0  0  0  0
    6.0092   -2.2966   29.3457 H   0  0  0  0  0  0  0  0  0  0  0  0
    6.0938   -0.5595   29.1348 H   0  0  0  0  0  0  0  0  0  0  0  0
    6.3490   -2.3501   26.7761 H   0  0  0  0  0  0  0  0  0  0  0  0
    7.0482   -2.5005   24.5920 H   0  0  0  0  0  0  0  0  0  0  0  0
   11.1805   -2.5621   24.1301 H   0  0  0  0  0  0  0  0  0  0  0  0
   10.9400   -0.2500   26.6770 H   0  0  0  0  0  0  0  0  0  0  0  0
   11.9958   -1.5978   26.1785 H   0  0  0  0  0  0  0  0  0  0  0  0
   10.9350   -1.8074   27.5931 H   0  0  0  0  0  0  0  0  0  0  0  0
  1  2  1  0
  2  3  1  0
  3  4  1  0
  4  5  1  0
  5  6  2  0
  5  7  1  0
  7  8  1  0
  8  9  1  0
  9 10  2  0
 10 11  1  0
 11 12  2  0
 12 13  1  0
  2 14  1  0
 14 15  1  0
 15 16  1  0
 16 17  2  0
 16 18  1  0
 18 19  2  0
 19 20  1  0
 20 21  2  0
 21 22  1  0
 22 23  1  0
 13  9  1  0
 22 18  1  0
  1 24  1  0
  1 25  1  0
  1 26  1  0
  2 27  1  0
  3 28  1  0
  3 29  1  0
  4 30  1  0
  7 31  1  0
  7 32  1  0
  8 33  1  0
  8 34  1  0
 10 35  1  0
 11 36  1  0
 13 37  1  0
 14 38  1  0
 14 39  1  0
 15 40  1  0
 19 41  1  0
 21 42  1  0
 23 43  1  0
 23 44  1  0
 23 45  1  0
M  END
>  <Energy>  (1494) 
-24.557802127209413

>  <compound_id>  (1494) 
8130

>  <target_id>  (1494) 
1

>  <reference_id>  (1494) 
63

>  <inspiration_ids>  (1494) 
[63, 7]

>  <energy_score>  (1494) 
-14.217596487402062

>  <distance_score>  (1494) 
10.300960497556087

>  <path>  (1494) 
/opt/xchem-fragalysis-2/maxwin/BulkDock/SCRATCH/511021/C8130-P63/C8130-P63.minimised.mol

>  <scratch_subdir>  (1494) 
/opt/xchem-fragalysis-2/maxwin/BulkDock/SCRATCH/511021/C8130-P63

>  <fragmenstein_runtime>  (1494) 
25.478400707244873

>  <fragmenstein_outcome>  (1494) 
too moved

>  <fragmenstein_mode>  (1494) 
expansion

>  <fragmenstein_error>  (1494) 


$$$$
C8130-P7
     RDKit          3D

 45 46  0  0  0  0  0  0  0  0999 V2000
    3.3986   -1.5424   26.9273 C   0  0  0  0  0  0  0  0  0  0  0  0
    4.2673   -1.3312   28.1649 C   0  0  0  0  0  0  0  0  0  0  0  0
    3.5445   -0.4140   29.1975 C   0  0  0  0  0  0  0  0  0  0  0  0
    2.2254   -0.7769   29.7179 N   0  0  0  0  0  0  0  0  0  0  0  0
    1.6754   -0.6855   31.0547 C   0  0  0  0  0  0  0  0  0  0  0  0
    2.1872   -0.3643   32.0894 O   0  0  0  0  0  0  0  0  0  0  0  0
    0.1371   -0.9673   31.0661 C   0  0  0  0  0  0  0  0  0  0  0  0
   -0.4472   -0.7860   32.4933 C   0  0  0  0  0  0  0  0  0  0  0  0
   -1.9506   -0.6991   32.6658 C   0  0  0  0  0  0  0  0  0  0  0  0
   -2.8152   -1.3672   33.5154 C   0  0  0  0  0  0  0  0  0  0  0  0
   -4.0512   -0.7010   33.4064 C   0  0  0  0  0  0  0  0  0  0  0  0
   -3.9903    0.3235   32.5516 N   0  0  0  0  0  0  0  0  0  0  0  0
   -2.7206    0.2740   32.0906 N   0  0  0  0  0  0  0  0  0  0  0  0
    5.6154   -0.6439   27.7872 C   0  0  0  0  0  0  0  0  0  0  0  0
    6.6014   -1.3551   26.9847 N   0  0  0  0  0  0  0  0  0  0  0  0
    7.9927   -1.0747   26.7316 C   0  0  0  0  0  0  0  0  0  0  0  0
    8.7103   -0.2306   27.1804 O   0  0  0  0  0  0  0  0  0  0  0  0
    8.6150   -1.9394   25.6945 C   0  0  0  0  0  0  0  0  0  0  0  0
    8.0896   -2.6793   24.6430 C   0  0  0  0  0  0  0  0  0  0  0  0
    9.0509   -3.2582   23.8509 N   0  0  0  0  0  0  0  0  0  0  0  0
   10.1865   -2.8952   24.3993 C   0  0  0  0  0  0  0  0  0  0  0  0
    9.9835   -2.0759   25.4744 N   0  0  0  0  0  0  0  0  0  0  0  0
   11.0481   -1.4731   26.2427 C   0  0  0  0  0  0  0  0  0  0  0  0
    2.4703   -2.0597   27.1889 H   0  0  0  0  0  0  0  0  0  0  0  0
    3.9118   -2.1486   26.1761 H   0  0  0  0  0  0  0  0  0  0  0  0
    3.1362   -0.5868   26.4618 H   0  0  0  0  0  0  0  0  0  0  0  0
    4.4704   -2.3048   28.6260 H   0  0  0  0  0  0  0  0  0  0  0  0
    3.4121    0.5837   28.7608 H   0  0  0  0  0  0  0  0  0  0  0  0
    4.1923   -0.2837   30.0729 H   0  0  0  0  0  0  0  0  0  0  0  0
    1.4801   -1.0032   29.0681 H   0  0  0  0  0  0  0  0  0  0  0  0
   -0.3396   -0.2651   30.3727 H   0  0  0  0  0  0  0  0  0  0  0  0
   -0.0426   -1.9875   30.7109 H   0  0  0  0  0  0  0  0  0  0  0  0
   -0.0432    0.1365   32.9331 H   0  0  0  0  0  0  0  0  0  0  0  0
   -0.0733   -1.6044   33.1229 H   0  0  0  0  0  0  0  0  0  0  0  0
   -2.5602   -2.1828   34.1778 H   0  0  0  0  0  0  0  0  0  0  0  0
   -4.9758   -0.9043   33.9305 H   0  0  0  0  0  0  0  0  0  0  0  0
   -2.4268    0.9722   31.4150 H   0  0  0  0  0  0  0  0  0  0  0  0
    6.1433   -0.3529   28.7037 H   0  0  0  0  0  0  0  0  0  0  0  0
    5.4126    0.2904   27.2488 H   0  0  0  0  0  0  0  0  0  0  0  0
    6.2934   -2.1019   26.3599 H   0  0  0  0  0  0  0  0  0  0  0  0
    7.0482   -2.7733   24.3692 H   0  0  0  0  0  0  0  0  0  0  0  0
   11.1742   -3.1624   24.0405 H   0  0  0  0  0  0  0  0  0  0  0  0
   12.0059   -1.9030   25.9367 H   0  0  0  0  0  0  0  0  0  0  0  0
   10.8834   -1.6846   27.3020 H   0  0  0  0  0  0  0  0  0  0  0  0
   11.0519   -0.3982   26.0466 H   0  0  0  0  0  0  0  0  0  0  0  0
  1  2  1  0
  2  3  1  0
  3  4  1  0
  4  5  1  0
  5  6  2  0
  5  7  1  0
  7  8  1  0
  8  9  1  0
  9 10  2  0
 10 11  1  0
 11 12  2  0
 12 13  1  0
  2 14  1  0
 14 15  1  0
 15 16  1  0
 16 17  2  0
 16 18  1  0
 18 19  2  0
 19 20  1  0
 20 21  2  0
 21 22  1  0
 22 23  1  0
 13  9  1  0
 22 18  1  0
  1 24  1  0
  1 25  1  0
  1 26  1  0
  2 27  1  0
  3 28  1  0
  3 29  1  0
  4 30  1  0
  7 31  1  0
  7 32  1  0
  8 33  1  0
  8 34  1  0
 10 35  1  0
 11 36  1  0
 13 37  1  0
 14 38  1  0
 14 39  1  0
 15 40  1  0
 19 41  1  0
 21 42  1  0
 23 43  1  0
 23 44  1  0
 23 45  1  0
M  END
>  <Energy>  (1495) 
-25.004697050914913

>  <compound_id>  (1495) 
8130

>  <target_id>  (1495) 
1

>  <reference_id>  (1495) 
7

>  <inspiration_ids>  (1495) 
[63, 7]

>  <energy_score>  (1495) 
-14.664491411105104

>  <distance_score>  (1495) 
10.280555005960924

>  <path>  (1495) 
/opt/xchem-fragalysis-2/maxwin/BulkDock/SCRATCH/511021/C8130-P7/C8130-P7.minimised.mol

>  <scratch_subdir>  (1495) 
/opt/xchem-fragalysis-2/maxwin/BulkDock/SCRATCH/511021/C8130-P7

>  <fragmenstein_runtime>  (1495) 
26.127159118652344

>  <fragmenstein_outcome>  (1495) 
too moved

>  <fragmenstein_mode>  (1495) 
expansion

>  <fragmenstein_error>  (1495) 


$$$$
C8131-P63
     RDKit          3D

 42 43  0  0  0  0  0  0  0  0999 V2000
    1.4895    0.0330   27.8652 C   0  0  0  0  0  0  0  0  0  0  0  0
    2.4689   -0.8575   28.6197 C   0  0  0  0  0  0  0  0  0  0  0  0
    1.7018   -1.6896   29.7161 C   0  0  0  0  0  0  0  0  0  0  0  0
    0.4485   -1.1896   30.2931 N   0  0  0  0  0  0  0  0  0  0  0  0
    0.0384   -1.0225   31.6736 C   0  0  0  0  0  0  0  0  0  0  0  0
    0.6482   -1.1753   32.6932 O   0  0  0  0  0  0  0  0  0  0  0  0
   -1.4864   -0.6835   31.7568 C   0  0  0  0  0  0  0  0  0  0  0  0
   -1.9888   -0.6062   33.2214 C   0  0  0  0  0  0  0  0  0  0  0  0
   -3.4901   -0.5333   33.4280 C   0  0  0  0  0  0  0  0  0  0  0  0
   -4.3814    0.5183   33.5189 C   0  0  0  0  0  0  0  0  0  0  0  0
   -5.6298   -0.0627   33.8279 C   0  0  0  0  0  0  0  0  0  0  0  0
   -5.5482   -1.3874   33.9564 N   0  0  0  0  0  0  0  0  0  0  0  0
   -4.2356   -1.6384   33.7636 N   0  0  0  0  0  0  0  0  0  0  0  0
    3.2213   -1.8737   27.6926 C   0  0  0  0  0  0  0  0  0  0  0  0
    4.3069   -1.5518   26.7599 N   0  0  0  0  0  0  0  0  0  0  0  0
    4.5784   -0.3662   26.0048 C   0  0  0  0  0  0  0  0  0  0  0  0
    4.0337    0.6980   26.0012 O   0  0  0  0  0  0  0  0  0  0  0  0
    5.6555   -0.5705   25.0136 C   0  0  0  0  0  0  0  0  0  0  0  0
    6.8743   -1.2381   24.9685 C   0  0  0  0  0  0  0  0  0  0  0  0
    7.4748   -1.1802   23.7149 N   0  0  0  0  0  0  0  0  0  0  0  0
    6.6313   -0.4694   23.0135 C   0  0  0  0  0  0  0  0  0  0  0  0
    6.6968   -0.0779   21.3670 Cl  0  0  0  0  0  0  0  0  0  0  0  0
    5.5689   -0.0437   23.7363 N   0  0  0  0  0  0  0  0  0  0  0  0
    0.7016   -0.5595   27.3925 H   0  0  0  0  0  0  0  0  0  0  0  0
    1.9841    0.6280   27.1010 H   0  0  0  0  0  0  0  0  0  0  0  0
    1.0103    0.7469   28.5441 H   0  0  0  0  0  0  0  0  0  0  0  0
    3.2053   -0.2172   29.1198 H   0  0  0  0  0  0  0  0  0  0  0  0
    1.4221   -2.6620   29.2918 H   0  0  0  0  0  0  0  0  0  0  0  0
    2.3875   -1.8998   30.5453 H   0  0  0  0  0  0  0  0  0  0  0  0
   -0.3064   -0.8924   29.6852 H   0  0  0  0  0  0  0  0  0  0  0  0
   -2.0356   -1.4668   31.2207 H   0  0  0  0  0  0  0  0  0  0  0  0
   -1.6629    0.2717   31.2498 H   0  0  0  0  0  0  0  0  0  0  0  0
   -1.6172   -1.4785   33.7760 H   0  0  0  0  0  0  0  0  0  0  0  0
   -1.5329    0.2690   33.7027 H   0  0  0  0  0  0  0  0  0  0  0  0
   -4.1496    1.5665   33.4109 H   0  0  0  0  0  0  0  0  0  0  0  0
   -6.5844    0.4258   33.9737 H   0  0  0  0  0  0  0  0  0  0  0  0
   -3.8915   -2.5858   33.9121 H   0  0  0  0  0  0  0  0  0  0  0  0
    3.6744   -2.6293   28.3463 H   0  0  0  0  0  0  0  0  0  0  0  0
    2.4776   -2.4052   27.0882 H   0  0  0  0  0  0  0  0  0  0  0  0
    4.9270   -2.2991   26.4403 H   0  0  0  0  0  0  0  0  0  0  0  0
    7.3483   -1.7736   25.7811 H   0  0  0  0  0  0  0  0  0  0  0  0
    4.7308    0.3954   23.3697 H   0  0  0  0  0  0  0  0  0  0  0  0
  1  2  1  0
  2  3  1  0
  3  4  1  0
  4  5  1  0
  5  6  2  0
  5  7  1  0
  7  8  1  0
  8  9  1  0
  9 10  2  0
 10 11  1  0
 11 12  2  0
 12 13  1  0
  2 14  1  0
 14 15  1  0
 15 16  1  0
 16 17  2  0
 16 18  1  0
 18 19  2  0
 19 20  1  0
 20 21  2  0
 21 22  1  0
 21 23  1  0
 13  9  1  0
 23 18  1  0
  1 24  1  0
  1 25  1  0
  1 26  1  0
  2 27  1  0
  3 28  1  0
  3 29  1  0
  4 30  1  0
  7 31  1  0
  7 32  1  0
  8 33  1  0
  8 34  1  0
 10 35  1  0
 11 36  1  0
 13 37  1  0
 14 38  1  0
 14 39  1  0
 15 40  1  0
 19 41  1  0
 23 42  1  0
M  END
>  <Energy>  (1496) 
-28.081517428026896

>  <compound_id>  (1496) 
8131

>  <target_id>  (1496) 
1

>  <reference_id>  (1496) 
63

>  <inspiration_ids>  (1496) 
[63, 7]

>  <energy_score>  (1496) 
-17.376270948944693

>  <distance_score>  (1496) 
9.992621521565034

>  <path>  (1496) 
/opt/xchem-fragalysis-2/maxwin/BulkDock/SCRATCH/511021/C8131-P63/C8131-P63.minimised.mol

>  <scratch_subdir>  (1496) 
/opt/xchem-fragalysis-2/maxwin/BulkDock/SCRATCH/511021/C8131-P63

>  <fragmenstein_runtime>  (1496) 
14.853806972503662

>  <fragmenstein_outcome>  (1496) 
too moved

>  <fragmenstein_mode>  (1496) 
expansion

>  <fragmenstein_error>  (1496) 


$$$$
C8131-P7
     RDKit          3D

 42 43  0  0  0  0  0  0  0  0999 V2000
    5.3291  -11.4607   29.9790 C   0  0  0  0  0  0  0  0  0  0  0  0
    5.2196  -12.9144   29.5842 C   0  0  0  0  0  0  0  0  0  0  0  0
    3.7588  -13.4812   29.5305 C   0  0  0  0  0  0  0  0  0  0  0  0
    2.6739  -12.8860   30.3296 N   0  0  0  0  0  0  0  0  0  0  0  0
    1.6500  -11.9121   29.9735 C   0  0  0  0  0  0  0  0  0  0  0  0
    1.4828  -11.2907   28.9634 O   0  0  0  0  0  0  0  0  0  0  0  0
    0.5747  -11.7940   31.1234 C   0  0  0  0  0  0  0  0  0  0  0  0
   -0.4743  -10.6749   30.8717 C   0  0  0  0  0  0  0  0  0  0  0  0
   -1.3710  -10.2296   32.0277 C   0  0  0  0  0  0  0  0  0  0  0  0
   -1.3278   -9.1168   32.8545 C   0  0  0  0  0  0  0  0  0  0  0  0
   -2.4560   -9.2123   33.6899 C   0  0  0  0  0  0  0  0  0  0  0  0
   -3.2298  -10.2460   33.3633 N   0  0  0  0  0  0  0  0  0  0  0  0
   -2.5514  -10.8519   32.3670 N   0  0  0  0  0  0  0  0  0  0  0  0
    6.0611  -13.2453   28.3033 C   0  0  0  0  0  0  0  0  0  0  0  0
    6.6644  -12.1424   27.5373 N   0  0  0  0  0  0  0  0  0  0  0  0
    7.8163  -12.1129   26.6751 C   0  0  0  0  0  0  0  0  0  0  0  0
    8.6223  -12.9577   26.4243 O   0  0  0  0  0  0  0  0  0  0  0  0
    8.0176  -10.8316   25.9698 C   0  0  0  0  0  0  0  0  0  0  0  0
    7.6310   -9.5088   26.1450 C   0  0  0  0  0  0  0  0  0  0  0  0
    8.1215   -8.6679   25.1561 N   0  0  0  0  0  0  0  0  0  0  0  0
    8.8546   -9.4645   24.4158 C   0  0  0  0  0  0  0  0  0  0  0  0
    9.8002   -9.1148   23.0605 Cl  0  0  0  0  0  0  0  0  0  0  0  0
    8.8287  -10.7503   24.8431 N   0  0  0  0  0  0  0  0  0  0  0  0
    4.6796  -10.8394   29.3596 H   0  0  0  0  0  0  0  0  0  0  0  0
    6.3555  -11.0883   29.8936 H   0  0  0  0  0  0  0  0  0  0  0  0
    5.0676  -11.3556   31.0325 H   0  0  0  0  0  0  0  0  0  0  0  0
    5.7019  -13.4735   30.4002 H   0  0  0  0  0  0  0  0  0  0  0  0
    3.3941  -13.4843   28.5044 H   0  0  0  0  0  0  0  0  0  0  0  0
    3.7967  -14.5360   29.8293 H   0  0  0  0  0  0  0  0  0  0  0  0
    2.5553  -13.1517   31.3020 H   0  0  0  0  0  0  0  0  0  0  0  0
    1.0841  -11.6568   32.0769 H   0  0  0  0  0  0  0  0  0  0  0  0
    0.0533  -12.7577   31.1800 H   0  0  0  0  0  0  0  0  0  0  0  0
    0.0366   -9.7790   30.5081 H   0  0  0  0  0  0  0  0  0  0  0  0
   -1.1165  -11.0033   30.0451 H   0  0  0  0  0  0  0  0  0  0  0  0
   -0.5719   -8.3435   32.8664 H   0  0  0  0  0  0  0  0  0  0  0  0
   -2.7452   -8.5665   34.5083 H   0  0  0  0  0  0  0  0  0  0  0  0
   -2.9611  -11.6810   31.9473 H   0  0  0  0  0  0  0  0  0  0  0  0
    6.8978  -13.8921   28.5963 H   0  0  0  0  0  0  0  0  0  0  0  0
    5.4778  -13.8390   27.5919 H   0  0  0  0  0  0  0  0  0  0  0  0
    6.1622  -11.2742   27.4439 H   0  0  0  0  0  0  0  0  0  0  0  0
    7.0240   -9.1086   26.9463 H   0  0  0  0  0  0  0  0  0  0  0  0
    9.3212  -11.5297   24.4270 H   0  0  0  0  0  0  0  0  0  0  0  0
  1  2  1  0
  2  3  1  0
  3  4  1  0
  4  5  1  0
  5  6  2  0
  5  7  1  0
  7  8  1  0
  8  9  1  0
  9 10  2  0
 10 11  1  0
 11 12  2  0
 12 13  1  0
  2 14  1  0
 14 15  1  0
 15 16  1  0
 16 17  2  0
 16 18  1  0
 18 19  2  0
 19 20  1  0
 20 21  2  0
 21 22  1  0
 21 23  1  0
 13  9  1  0
 23 18  1  0
  1 24  1  0
  1 25  1  0
  1 26  1  0
  2 27  1  0
  3 28  1  0
  3 29  1  0
  4 30  1  0
  7 31  1  0
  7 32  1  0
  8 33  1  0
  8 34  1  0
 10 35  1  0
 11 36  1  0
 13 37  1  0
 14 38  1  0
 14 39  1  0
 15 40  1  0
 19 41  1  0
 23 42  1  0
M  END
>  <Energy>  (1497) 
-28.435755026624999

>  <compound_id>  (1497) 
8131

>  <target_id>  (1497) 
1

>  <reference_id>  (1497) 
7

>  <inspiration_ids>  (1497) 
[63, 7]

>  <energy_score>  (1497) 
-17.730508547542343

>  <distance_score>  (1497) 
13.980182230854513

>  <path>  (1497) 
/opt/xchem-fragalysis-2/maxwin/BulkDock/SCRATCH/511021/C8131-P7/C8131-P7.minimised.mol

>  <scratch_subdir>  (1497) 
/opt/xchem-fragalysis-2/maxwin/BulkDock/SCRATCH/511021/C8131-P7

>  <fragmenstein_runtime>  (1497) 
12.60125184059143

>  <fragmenstein_outcome>  (1497) 
too moved

>  <fragmenstein_mode>  (1497) 
expansion

>  <fragmenstein_error>  (1497) 


$$$$
C8132-P63
     RDKit          3D

 42 43  0  0  0  0  0  0  0  0999 V2000
    9.2388    0.3311   24.6939 C   0  0  0  0  0  0  0  0  0  0  0  0
    7.8789   -0.2167   24.4847 C   0  0  0  0  0  0  0  0  0  0  0  0
    6.9258   -0.3466   25.3873 N   0  0  0  0  0  0  0  0  0  0  0  0
    5.8375   -0.9137   24.7533 C   0  0  0  0  0  0  0  0  0  0  0  0
    4.4655   -1.1198   25.4086 C   0  0  0  0  0  0  0  0  0  0  0  0
    4.3560   -1.2742   26.9528 C   0  0  0  0  0  0  0  0  0  0  0  0
    5.3262   -1.4978   27.6206 O   0  0  0  0  0  0  0  0  0  0  0  0
    2.9603   -1.0589   27.3415 N   0  0  0  0  0  0  0  0  0  0  0  0
    2.3339   -0.9534   28.6723 C   0  0  0  0  0  0  0  0  0  0  0  0
    2.8662    0.3104   29.3546 C   0  0  0  0  0  0  0  0  0  0  0  0
    0.7685   -0.9704   28.6203 C   0  0  0  0  0  0  0  0  0  0  0  0
    0.0531   -0.4638   29.8020 N   0  0  0  0  0  0  0  0  0  0  0  0
   -1.0723   -1.0125   30.5438 C   0  0  0  0  0  0  0  0  0  0  0  0
   -1.6518   -2.0575   30.4275 O   0  0  0  0  0  0  0  0  0  0  0  0
   -1.5275    0.0190   31.6298 C   0  0  0  0  0  0  0  0  0  0  0  0
   -2.7883   -0.3309   32.4043 C   0  0  0  0  0  0  0  0  0  0  0  0
   -3.4709    0.3228   33.4177 C   0  0  0  0  0  0  0  0  0  0  0  0
   -4.5485   -0.5227   33.7552 C   0  0  0  0  0  0  0  0  0  0  0  0
   -4.5349   -1.6495   33.0404 N   0  0  0  0  0  0  0  0  0  0  0  0
   -3.5090   -1.4748   32.1859 N   0  0  0  0  0  0  0  0  0  0  0  0
    6.1836   -1.1413   23.4303 C   0  0  0  0  0  0  0  0  0  0  0  0
    7.4388   -0.6407   23.2624 N   0  0  0  0  0  0  0  0  0  0  0  0
    9.4262    1.1702   24.0167 H   0  0  0  0  0  0  0  0  0  0  0  0
    9.9943   -0.4393   24.5117 H   0  0  0  0  0  0  0  0  0  0  0  0
    9.3561    0.6889   25.7213 H   0  0  0  0  0  0  0  0  0  0  0  0
    3.8550   -0.2501   25.1681 H   0  0  0  0  0  0  0  0  0  0  0  0
    3.9931   -2.0029   24.9619 H   0  0  0  0  0  0  0  0  0  0  0  0
    2.3904   -0.9789   26.5034 H   0  0  0  0  0  0  0  0  0  0  0  0
    2.6818   -1.8165   29.2520 H   0  0  0  0  0  0  0  0  0  0  0  0
    2.5223    1.2118   28.8353 H   0  0  0  0  0  0  0  0  0  0  0  0
    3.9616    0.3288   29.3537 H   0  0  0  0  0  0  0  0  0  0  0  0
    2.5459    0.3666   30.3995 H   0  0  0  0  0  0  0  0  0  0  0  0
    0.4129   -1.9850   28.4094 H   0  0  0  0  0  0  0  0  0  0  0  0
    0.4327   -0.3369   27.7909 H   0  0  0  0  0  0  0  0  0  0  0  0
    0.3352    0.4121   30.2278 H   0  0  0  0  0  0  0  0  0  0  0  0
   -1.6924    0.9813   31.1310 H   0  0  0  0  0  0  0  0  0  0  0  0
   -0.7031    0.1328   32.3439 H   0  0  0  0  0  0  0  0  0  0  0  0
   -3.2155    1.2716   33.8690 H   0  0  0  0  0  0  0  0  0  0  0  0
   -5.3195   -0.3748   34.5016 H   0  0  0  0  0  0  0  0  0  0  0  0
   -3.3125   -2.1836   31.4800 H   0  0  0  0  0  0  0  0  0  0  0  0
    5.6154   -1.5295   22.6034 H   0  0  0  0  0  0  0  0  0  0  0  0
    7.9510   -0.5805   22.3957 H   0  0  0  0  0  0  0  0  0  0  0  0
  1  2  1  0
  2  3  2  0
  3  4  1  0
  4  5  1  0
  5  6  1  0
  6  7  2  0
  6  8  1  0
  8  9  1  0
  9 10  1  0
  9 11  1  0
 11 12  1  0
 12 13  1  0
 13 14  2  0
 13 15  1  0
 15 16  1  0
 16 17  2  0
 17 18  1  0
 18 19  2  0
 19 20  1  0
  4 21  2  0
 21 22  1  0
 22  2  1  0
 20 16  1  0
  1 23  1  0
  1 24  1  0
  1 25  1  0
  5 26  1  0
  5 27  1  0
  8 28  1  0
  9 29  1  0
 10 30  1  0
 10 31  1  0
 10 32  1  0
 11 33  1  0
 11 34  1  0
 12 35  1  0
 15 36  1  0
 15 37  1  0
 17 38  1  0
 18 39  1  0
 20 40  1  0
 21 41  1  0
 22 42  1  0
M  END
>  <Energy>  (1498) 
56.886332796319188

>  <compound_id>  (1498) 
8132

>  <target_id>  (1498) 
1

>  <reference_id>  (1498) 
63

>  <inspiration_ids>  (1498) 
[63, 7]

>  <energy_score>  (1498) 
-16.9181910810172

>  <distance_score>  (1498) 
10.293973492912082

>  <path>  (1498) 
/opt/xchem-fragalysis-2/maxwin/BulkDock/SCRATCH/511021/C8132-P63/C8132-P63.minimised.mol

>  <scratch_subdir>  (1498) 
/opt/xchem-fragalysis-2/maxwin/BulkDock/SCRATCH/511021/C8132-P63

>  <fragmenstein_runtime>  (1498) 
18.51064157485962

>  <fragmenstein_outcome>  (1498) 
too moved

>  <fragmenstein_mode>  (1498) 
expansion

>  <fragmenstein_error>  (1498) 


$$$$
C8132-P7
     RDKit          3D

 42 43  0  0  0  0  0  0  0  0999 V2000
   13.8049   -3.8803   23.7459 C   0  0  0  0  0  0  0  0  0  0  0  0
   12.9443   -3.9278   22.5444 C   0  0  0  0  0  0  0  0  0  0  0  0
   11.6365   -3.8098   22.5067 N   0  0  0  0  0  0  0  0  0  0  0  0
   11.1884   -3.7966   21.1267 C   0  0  0  0  0  0  0  0  0  0  0  0
    9.1370   -3.9220   20.5966 C   0  0  0  0  0  0  0  0  0  0  0  0
    7.8431   -3.5660   22.2117 C   0  0  0  0  0  0  0  0  0  0  0  0
    7.5992   -4.5944   22.8316 O   0  0  0  0  0  0  0  0  0  0  0  0
    7.4466   -2.1173   22.5214 N   0  0  0  0  0  0  0  0  0  0  0  0
    6.7465   -1.5137   23.7170 C   0  0  0  0  0  0  0  0  0  0  0  0
    7.6808   -1.6326   24.9285 C   0  0  0  0  0  0  0  0  0  0  0  0
    5.2352   -1.3325   24.0388 C   0  0  0  0  0  0  0  0  0  0  0  0
    4.4549   -1.7739   25.2314 N   0  0  0  0  0  0  0  0  0  0  0  0
    3.7810   -0.9878   26.2969 C   0  0  0  0  0  0  0  0  0  0  0  0
    3.7675    0.1965   26.5049 O   0  0  0  0  0  0  0  0  0  0  0  0
    2.9625   -1.9332   27.2645 C   0  0  0  0  0  0  0  0  0  0  0  0
    1.7597   -1.3622   28.0648 C   0  0  0  0  0  0  0  0  0  0  0  0
    1.5583   -0.2355   28.8456 C   0  0  0  0  0  0  0  0  0  0  0  0
    0.2730   -0.3748   29.4208 C   0  0  0  0  0  0  0  0  0  0  0  0
   -0.3212   -1.5098   29.0530 N   0  0  0  0  0  0  0  0  0  0  0  0
    0.5719   -2.0600   28.1972 N   0  0  0  0  0  0  0  0  0  0  0  0
   12.3878   -4.2051   20.4348 C   0  0  0  0  0  0  0  0  0  0  0  0
   13.4420   -4.1086   21.2919 N   0  0  0  0  0  0  0  0  0  0  0  0
   14.5195   -3.0544   23.6759 H   0  0  0  0  0  0  0  0  0  0  0  0
   13.2012   -3.7322   24.6467 H   0  0  0  0  0  0  0  0  0  0  0  0
   14.3619   -4.8154   23.8594 H   0  0  0  0  0  0  0  0  0  0  0  0
    9.2660   -3.0208   20.2432 H   0  0  0  0  0  0  0  0  0  0  0  0
    9.6690   -4.8691   20.2892 H   0  0  0  0  0  0  0  0  0  0  0  0
    7.7312   -1.5363   21.7763 H   0  0  0  0  0  0  0  0  0  0  0  0
    6.9530   -0.4701   23.4181 H   0  0  0  0  0  0  0  0  0  0  0  0
    7.2557   -1.1663   25.8226 H   0  0  0  0  0  0  0  0  0  0  0  0
    7.9425   -2.6730   25.1383 H   0  0  0  0  0  0  0  0  0  0  0  0
    8.6317   -1.1239   24.7239 H   0  0  0  0  0  0  0  0  0  0  0  0
    5.0960   -0.2451   24.0566 H   0  0  0  0  0  0  0  0  0  0  0  0
    4.7192   -1.7556   23.2008 H   0  0  0  0  0  0  0  0  0  0  0  0
    4.1787   -2.7522   25.3118 H   0  0  0  0  0  0  0  0  0  0  0  0
    3.6841   -2.3144   27.9981 H   0  0  0  0  0  0  0  0  0  0  0  0
    2.6016   -2.7868   26.6908 H   0  0  0  0  0  0  0  0  0  0  0  0
    2.2638    0.5715   28.9919 H   0  0  0  0  0  0  0  0  0  0  0  0
   -0.2359    0.2999   30.0957 H   0  0  0  0  0  0  0  0  0  0  0  0
    0.3195   -2.9270   27.7370 H   0  0  0  0  0  0  0  0  0  0  0  0
   12.5621   -4.5081   19.4118 H   0  0  0  0  0  0  0  0  0  0  0  0
   14.4130   -4.2628   21.0640 H   0  0  0  0  0  0  0  0  0  0  0  0
  1  2  1  0
  2  3  2  0
  3  4  1  0
  4  5  1  0
  5  6  1  0
  6  7  2  0
  6  8  1  0
  8  9  1  0
  9 10  1  0
  9 11  1  0
 11 12  1  0
 12 13  1  0
 13 14  2  0
 13 15  1  0
 15 16  1  0
 16 17  2  0
 17 18  1  0
 18 19  2  0
 19 20  1  0
  4 21  2  0
 21 22  1  0
 22  2  1  0
 20 16  1  0
  1 23  1  0
  1 24  1  0
  1 25  1  0
  5 26  1  0
  5 27  1  0
  8 28  1  0
  9 29  1  0
 10 30  1  0
 10 31  1  0
 10 32  1  0
 11 33  1  0
 11 34  1  0
 12 35  1  0
 15 36  1  0
 15 37  1  0
 17 38  1  0
 18 39  1  0
 20 40  1  0
 21 41  1  0
 22 42  1  0
M  END
>  <Energy>  (1499) 
297.82241385225575

>  <compound_id>  (1499) 
8132

>  <target_id>  (1499) 
1

>  <reference_id>  (1499) 
7

>  <inspiration_ids>  (1499) 
[63, 7]

>  <energy_score>  (1499) 
224.0178899749236

>  <distance_score>  (1499) 
11.59296551455662

>  <path>  (1499) 
/opt/xchem-fragalysis-2/maxwin/BulkDock/SCRATCH/511021/C8132-P7/C8132-P7.minimised.mol

>  <scratch_subdir>  (1499) 
/opt/xchem-fragalysis-2/maxwin/BulkDock/SCRATCH/511021/C8132-P7

>  <fragmenstein_runtime>  (1499) 
17.291234254837036

>  <fragmenstein_outcome>  (1499) 
too moved

>  <fragmenstein_mode>  (1499) 
expansion

>  <fragmenstein_error>  (1499) 


$$$$
C8133-P63
     RDKit          3D

 42 43  0  0  0  0  0  0  0  0999 V2000
    0.6539    0.9054   16.7675 C   0  0  0  0  0  0  0  0  0  0  0  0
    1.3149   -0.2243   17.4595 C   0  0  0  0  0  0  0  0  0  0  0  0
    2.6629   -0.4734   17.3440 N   0  0  0  0  0  0  0  0  0  0  0  0
    2.9435   -1.5743   18.0933 C   0  0  0  0  0  0  0  0  0  0  0  0
    1.8601   -2.0520   18.6628 N   0  0  0  0  0  0  0  0  0  0  0  0
    0.8223   -1.2001   18.3137 C   0  0  0  0  0  0  0  0  0  0  0  0
   -0.5992   -1.4981   18.7797 C   0  0  0  0  0  0  0  0  0  0  0  0
   -1.3152   -0.4128   19.6464 C   0  0  0  0  0  0  0  0  0  0  0  0
   -0.9081    0.7156   19.6381 O   0  0  0  0  0  0  0  0  0  0  0  0
   -2.4521   -1.0137   20.3572 N   0  0  0  0  0  0  0  0  0  0  0  0
   -3.5064   -0.3964   21.2059 C   0  0  0  0  0  0  0  0  0  0  0  0
   -2.8856    0.5445   22.2400 C   0  0  0  0  0  0  0  0  0  0  0  0
   -4.4227   -1.4461   21.9266 C   0  0  0  0  0  0  0  0  0  0  0  0
   -5.5502   -0.9237   22.7200 N   0  0  0  0  0  0  0  0  0  0  0  0
   -6.6994   -1.6042   23.3124 C   0  0  0  0  0  0  0  0  0  0  0  0
   -7.0554   -2.7464   23.2346 O   0  0  0  0  0  0  0  0  0  0  0  0
   -7.5992   -0.5840   24.0918 C   0  0  0  0  0  0  0  0  0  0  0  0
   -8.3365   -1.1070   25.3226 C   0  0  0  0  0  0  0  0  0  0  0  0
   -8.5692   -2.3617   25.8547 C   0  0  0  0  0  0  0  0  0  0  0  0
   -9.3642   -2.1564   26.9980 C   0  0  0  0  0  0  0  0  0  0  0  0
   -9.6121   -0.8646   27.2105 N   0  0  0  0  0  0  0  0  0  0  0  0
   -8.9920   -0.2532   26.1864 N   0  0  0  0  0  0  0  0  0  0  0  0
    1.0936    1.0718   15.7787 H   0  0  0  0  0  0  0  0  0  0  0  0
   -0.4142    0.7107   16.6289 H   0  0  0  0  0  0  0  0  0  0  0  0
    0.7624    1.8246   17.3515 H   0  0  0  0  0  0  0  0  0  0  0  0
    3.3253    0.0597   16.7991 H   0  0  0  0  0  0  0  0  0  0  0  0
    3.9381   -1.9820   18.1913 H   0  0  0  0  0  0  0  0  0  0  0  0
   -0.5727   -2.4335   19.3518 H   0  0  0  0  0  0  0  0  0  0  0  0
   -1.2237   -1.6677   17.8943 H   0  0  0  0  0  0  0  0  0  0  0  0
   -2.5532   -1.9804   20.0650 H   0  0  0  0  0  0  0  0  0  0  0  0
   -4.1224    0.2015   20.5241 H   0  0  0  0  0  0  0  0  0  0  0  0
   -2.2298    1.2847   21.7727 H   0  0  0  0  0  0  0  0  0  0  0  0
   -2.2945   -0.0180   22.9679 H   0  0  0  0  0  0  0  0  0  0  0  0
   -3.6527    1.1000   22.7878 H   0  0  0  0  0  0  0  0  0  0  0  0
   -4.8480   -2.1375   21.1901 H   0  0  0  0  0  0  0  0  0  0  0  0
   -3.8206   -2.0566   22.6095 H   0  0  0  0  0  0  0  0  0  0  0  0
   -5.5135    0.0266   23.0665 H   0  0  0  0  0  0  0  0  0  0  0  0
   -8.3465   -0.2236   23.3736 H   0  0  0  0  0  0  0  0  0  0  0  0
   -6.9989    0.2808   24.3924 H   0  0  0  0  0  0  0  0  0  0  0  0
   -8.2328   -3.3076   25.4523 H   0  0  0  0  0  0  0  0  0  0  0  0
   -9.7720   -2.8990   27.6705 H   0  0  0  0  0  0  0  0  0  0  0  0
   -9.0578    0.7574   26.1301 H   0  0  0  0  0  0  0  0  0  0  0  0
  1  2  1  0
  2  3  1  0
  3  4  1  0
  4  5  2  0
  5  6  1  0
  6  7  1  0
  7  8  1  0
  8  9  2  0
  8 10  1  0
 10 11  1  0
 11 12  1  0
 11 13  1  0
 13 14  1  0
 14 15  1  0
 15 16  2  0
 15 17  1  0
 17 18  1  0
 18 19  2  0
 19 20  1  0
 20 21  2  0
 21 22  1  0
  6  2  2  0
 22 18  1  0
  1 23  1  0
  1 24  1  0
  1 25  1  0
  3 26  1  0
  4 27  1  0
  7 28  1  0
  7 29  1  0
 10 30  1  0
 11 31  1  0
 12 32  1  0
 12 33  1  0
 12 34  1  0
 13 35  1  0
 13 36  1  0
 14 37  1  0
 17 38  1  0
 17 39  1  0
 19 40  1  0
 20 41  1  0
 22 42  1  0
M  END
>  <Energy>  (1500) 
56.685554048494524

>  <compound_id>  (1500) 
8133

>  <target_id>  (1500) 
1

>  <reference_id>  (1500) 
63

>  <inspiration_ids>  (1500) 
[63, 7]

>  <energy_score>  (1500) 
-11.913724316984144

>  <distance_score>  (1500) 
11.826982197071969

>  <path>  (1500) 
/opt/xchem-fragalysis-2/maxwin/BulkDock/SCRATCH/511021/C8133-P63/C8133-P63.minimised.mol

>  <scratch_subdir>  (1500) 
/opt/xchem-fragalysis-2/maxwin/BulkDock/SCRATCH/511021/C8133-P63

>  <fragmenstein_runtime>  (1500) 
20.655075550079346

>  <fragmenstein_outcome>  (1500) 
too moved

>  <fragmenstein_mode>  (1500) 
expansion

>  <fragmenstein_error>  (1500) 


$$$$
C8133-P7
     RDKit          3D

 42 43  0  0  0  0  0  0  0  0999 V2000
   11.9799   -3.5109   16.5406 C   0  0  0  0  0  0  0  0  0  0  0  0
   12.9557   -3.8747   17.5817 C   0  0  0  0  0  0  0  0  0  0  0  0
   14.2832   -3.6244   17.3126 N   0  0  0  0  0  0  0  0  0  0  0  0
   15.0176   -4.0391   18.3699 C   0  0  0  0  0  0  0  0  0  0  0  0
   14.2478   -4.5372   19.3003 N   0  0  0  0  0  0  0  0  0  0  0  0
   12.9266   -4.4324   18.8609 C   0  0  0  0  0  0  0  0  0  0  0  0
   11.9223   -4.9013   19.9324 C   0  0  0  0  0  0  0  0  0  0  0  0
   10.0129   -5.1328   19.8751 C   0  0  0  0  0  0  0  0  0  0  0  0
    9.5339   -6.0950   19.4270 O   0  0  0  0  0  0  0  0  0  0  0  0
    9.2398   -3.7111   20.7460 N   0  0  0  0  0  0  0  0  0  0  0  0
    7.5245   -3.4105   21.3526 C   0  0  0  0  0  0  0  0  0  0  0  0
    7.4839   -3.9931   23.0698 C   0  0  0  0  0  0  0  0  0  0  0  0
    6.3828   -1.9373   21.5179 C   0  0  0  0  0  0  0  0  0  0  0  0
    6.0573   -1.5129   22.9722 N   0  0  0  0  0  0  0  0  0  0  0  0
    5.7543   -0.1955   23.5473 C   0  0  0  0  0  0  0  0  0  0  0  0
    5.7613    0.8967   23.0459 O   0  0  0  0  0  0  0  0  0  0  0  0
    5.4838   -0.3747   25.1340 C   0  0  0  0  0  0  0  0  0  0  0  0
    4.1397   -0.1411   25.8821 C   0  0  0  0  0  0  0  0  0  0  0  0
    3.6503    0.9526   26.5915 C   0  0  0  0  0  0  0  0  0  0  0  0
    2.5812    0.4755   27.3858 C   0  0  0  0  0  0  0  0  0  0  0  0
    2.3723   -0.8260   27.2009 N   0  0  0  0  0  0  0  0  0  0  0  0
    3.2430   -1.1494   26.2049 N   0  0  0  0  0  0  0  0  0  0  0  0
   12.4298   -3.5312   15.5433 H   0  0  0  0  0  0  0  0  0  0  0  0
   11.1615   -4.2149   16.5306 H   0  0  0  0  0  0  0  0  0  0  0  0
   11.6083   -2.4947   16.6849 H   0  0  0  0  0  0  0  0  0  0  0  0
   14.6541   -3.2150   16.4662 H   0  0  0  0  0  0  0  0  0  0  0  0
   16.0961   -3.9640   18.4090 H   0  0  0  0  0  0  0  0  0  0  0  0
   12.0882   -4.1975   20.7738 H   0  0  0  0  0  0  0  0  0  0  0  0
   12.2835   -5.8157   20.4127 H   0  0  0  0  0  0  0  0  0  0  0  0
    9.9079   -3.0210   20.9276 H   0  0  0  0  0  0  0  0  0  0  0  0
    7.8945   -2.6588   21.9795 H   0  0  0  0  0  0  0  0  0  0  0  0
    8.1324   -3.3957   23.7336 H   0  0  0  0  0  0  0  0  0  0  0  0
    7.5909   -5.0765   23.1338 H   0  0  0  0  0  0  0  0  0  0  0  0
    6.6502   -3.7521   23.6621 H   0  0  0  0  0  0  0  0  0  0  0  0
    5.4247   -2.2311   21.0763 H   0  0  0  0  0  0  0  0  0  0  0  0
    6.7738   -1.0566   20.9962 H   0  0  0  0  0  0  0  0  0  0  0  0
    5.8703   -2.2177   23.6564 H   0  0  0  0  0  0  0  0  0  0  0  0
    5.8398   -1.3656   25.4360 H   0  0  0  0  0  0  0  0  0  0  0  0
    6.2066    0.3148   25.5964 H   0  0  0  0  0  0  0  0  0  0  0  0
    4.0785    1.9447   26.6017 H   0  0  0  0  0  0  0  0  0  0  0  0
    1.9776    1.0147   28.1030 H   0  0  0  0  0  0  0  0  0  0  0  0
    3.1807   -2.0822   25.8064 H   0  0  0  0  0  0  0  0  0  0  0  0
  1  2  1  0
  2  3  1  0
  3  4  1  0
  4  5  2  0
  5  6  1  0
  6  7  1  0
  7  8  1  0
  8  9  2  0
  8 10  1  0
 10 11  1  0
 11 12  1  0
 11 13  1  0
 13 14  1  0
 14 15  1  0
 15 16  2  0
 15 17  1  0
 17 18  1  0
 18 19  2  0
 19 20  1  0
 20 21  2  0
 21 22  1  0
  6  2  2  0
 22 18  1  0
  1 23  1  0
  1 24  1  0
  1 25  1  0
  3 26  1  0
  4 27  1  0
  7 28  1  0
  7 29  1  0
 10 30  1  0
 11 31  1  0
 12 32  1  0
 12 33  1  0
 12 34  1  0
 13 35  1  0
 13 36  1  0
 14 37  1  0
 17 38  1  0
 17 39  1  0
 19 40  1  0
 20 41  1  0
 22 42  1  0
M  END
>  <Energy>  (1501) 
335.88910003650892

>  <compound_id>  (1501) 
8133

>  <target_id>  (1501) 
1

>  <reference_id>  (1501) 
7

>  <inspiration_ids>  (1501) 
[63, 7]

>  <energy_score>  (1501) 
267.2898216710379

>  <distance_score>  (1501) 
12.978880299147562

>  <path>  (1501) 
/opt/xchem-fragalysis-2/maxwin/BulkDock/SCRATCH/511021/C8133-P7/C8133-P7.minimised.mol

>  <scratch_subdir>  (1501) 
/opt/xchem-fragalysis-2/maxwin/BulkDock/SCRATCH/511021/C8133-P7

>  <fragmenstein_runtime>  (1501) 
14.78710412979126

>  <fragmenstein_outcome>  (1501) 
too moved

>  <fragmenstein_mode>  (1501) 
expansion

>  <fragmenstein_error>  (1501) 


$$$$
C10597-P63
     RDKit          3D

 48 49  0  0  0  0  0  0  0  0999 V2000
    7.1364   -0.4770   27.9190 C   0  0  0  0  0  0  0  0  0  0  0  0
    5.7344   -0.0865   27.4201 C   0  0  0  0  0  0  0  0  0  0  0  0
    4.8820    0.2638   28.6356 C   0  0  0  0  0  0  0  0  0  0  0  0
    5.1763   -1.2418   26.5534 C   0  0  0  0  0  0  0  0  0  0  0  0
    3.9534   -0.9929   25.6279 C   0  0  0  0  0  0  0  0  0  0  0  0
    4.0468   -1.8909   24.2292 C   0  0  0  0  0  0  0  0  0  0  0  0
    5.0461   -1.8109   22.8328 N   0  0  0  0  0  0  0  0  0  0  0  0
    5.3882   -0.6596   21.9192 C   0  0  0  0  0  0  0  0  0  0  0  0
    4.9729    0.4733   21.9046 O   0  0  0  0  0  0  0  0  0  0  0  0
    6.8999   -0.9372   20.5576 C   0  0  0  0  0  0  0  0  0  0  0  0
    7.1894    0.0648   19.1772 C   0  0  0  0  0  0  0  0  0  0  0  0
    7.9212    0.0842   17.6374 C   0  0  0  0  0  0  0  0  0  0  0  0
    9.0769    0.6414   17.2952 N   0  0  0  0  0  0  0  0  0  0  0  0
    9.4186    0.2248   16.0353 C   0  0  0  0  0  0  0  0  0  0  0  0
    8.4205   -0.5601   15.5481 C   0  0  0  0  0  0  0  0  0  0  0  0
    7.3890   -0.4019   16.4440 N   0  0  0  0  0  0  0  0  0  0  0  0
    2.7360   -1.2729   26.4950 N   0  0  0  0  0  0  0  0  0  0  0  0
    1.9284   -0.3890   27.3148 C   0  0  0  0  0  0  0  0  0  0  0  0
    1.9692    0.8014   27.4539 O   0  0  0  0  0  0  0  0  0  0  0  0
    0.8084   -1.0745   28.0910 C   0  0  0  0  0  0  0  0  0  0  0  0
   -0.1830   -0.3884   28.8890 C   0  0  0  0  0  0  0  0  0  0  0  0
   -1.0471   -1.3481   29.3565 C   0  0  0  0  0  0  0  0  0  0  0  0
   -0.5874   -2.5167   28.8334 N   0  0  0  0  0  0  0  0  0  0  0  0
    0.5665   -2.4025   28.1373 N   0  0  0  0  0  0  0  0  0  0  0  0
    7.5905    0.3417   28.4879 H   0  0  0  0  0  0  0  0  0  0  0  0
    7.8078   -0.7049   27.0849 H   0  0  0  0  0  0  0  0  0  0  0  0
    7.0929   -1.3588   28.5678 H   0  0  0  0  0  0  0  0  0  0  0  0
    5.8410    0.8149   26.8091 H   0  0  0  0  0  0  0  0  0  0  0  0
    5.4695    0.7859   29.3994 H   0  0  0  0  0  0  0  0  0  0  0  0
    4.4457   -0.6254   29.1009 H   0  0  0  0  0  0  0  0  0  0  0  0
    4.0869    0.9521   28.3559 H   0  0  0  0  0  0  0  0  0  0  0  0
    4.9419   -2.0725   27.2320 H   0  0  0  0  0  0  0  0  0  0  0  0
    5.9984   -1.5851   25.9237 H   0  0  0  0  0  0  0  0  0  0  0  0
    3.8579    0.0543   25.3838 H   0  0  0  0  0  0  0  0  0  0  0  0
    3.0829   -2.1722   23.8393 H   0  0  0  0  0  0  0  0  0  0  0  0
    4.3582   -2.8337   24.6749 H   0  0  0  0  0  0  0  0  0  0  0  0
    5.4955   -2.6073   22.5198 H   0  0  0  0  0  0  0  0  0  0  0  0
    7.8611   -0.6196   20.9301 H   0  0  0  0  0  0  0  0  0  0  0  0
    6.9749   -2.0150   20.4922 H   0  0  0  0  0  0  0  0  0  0  0  0
    6.6591    0.9174   18.8637 H   0  0  0  0  0  0  0  0  0  0  0  0
    7.5575    0.8504   19.8556 H   0  0  0  0  0  0  0  0  0  0  0  0
   10.3605    0.4877   15.5719 H   0  0  0  0  0  0  0  0  0  0  0  0
    8.2839   -1.0808   14.6093 H   0  0  0  0  0  0  0  0  0  0  0  0
    6.4497   -0.7584   16.3017 H   0  0  0  0  0  0  0  0  0  0  0  0
    2.3654   -2.2173   26.5616 H   0  0  0  0  0  0  0  0  0  0  0  0
   -0.2323    0.6798   29.0532 H   0  0  0  0  0  0  0  0  0  0  0  0
   -1.9354   -1.2979   29.9658 H   0  0  0  0  0  0  0  0  0  0  0  0
   -1.0086   -3.4364   28.8973 H   0  0  0  0  0  0  0  0  0  0  0  0
  1  2  1  0
  2  3  1  0
  2  4  1  0
  4  5  1  0
  5  6  1  0
  6  7  1  0
  7  8  1  0
  8  9  2  0
  8 10  1  0
 10 11  1  0
 11 12  1  0
 12 13  2  0
 13 14  1  0
 14 15  2  0
 15 16  1  0
  5 17  1  0
 17 18  1  0
 18 19  2  0
 18 20  1  0
 20 21  1  0
 21 22  2  0
 22 23  1  0
 23 24  1  0
 16 12  1  0
 24 20  2  0
  1 25  1  0
  1 26  1  0
  1 27  1  0
  2 28  1  0
  3 29  1  0
  3 30  1  0
  3 31  1  0
  4 32  1  0
  4 33  1  0
  5 34  1  0
  6 35  1  0
  6 36  1  0
  7 37  1  0
 10 38  1  0
 10 39  1  0
 11 40  1  0
 11 41  1  0
 14 42  1  0
 15 43  1  0
 16 44  1  0
 17 45  1  0
 21 46  1  0
 22 47  1  0
 23 48  1  0
M  END
>  <Energy>  (1502) 
251.35238041602759

>  <compound_id>  (1502) 
10597

>  <target_id>  (1502) 
1

>  <reference_id>  (1502) 
63

>  <inspiration_ids>  (1502) 
[63, 7]

>  <energy_score>  (1502) 
188.43428334520405

>  <distance_score>  (1502) 
10.984665807131007

>  <path>  (1502) 
/opt/xchem-fragalysis-2/maxwin/BulkDock/SCRATCH/511021/C10597-P63/C10597-P63.minimised.mol

>  <scratch_subdir>  (1502) 
/opt/xchem-fragalysis-2/maxwin/BulkDock/SCRATCH/511021/C10597-P63

>  <fragmenstein_runtime>  (1502) 
28.89440083503723

>  <fragmenstein_outcome>  (1502) 
too moved

>  <fragmenstein_mode>  (1502) 
expansion

>  <fragmenstein_error>  (1502) 


$$$$
C10597-P7
     RDKit          3D

 48 49  0  0  0  0  0  0  0  0999 V2000
    3.1247   -1.8181   28.3840 C   0  0  0  0  0  0  0  0  0  0  0  0
    1.8675   -0.9592   28.2152 C   0  0  0  0  0  0  0  0  0  0  0  0
    0.6434   -1.7576   28.6587 C   0  0  0  0  0  0  0  0  0  0  0  0
    2.0555    0.3717   28.9736 C   0  0  0  0  0  0  0  0  0  0  0  0
    0.9503    1.4460   28.8342 C   0  0  0  0  0  0  0  0  0  0  0  0
    0.5740    1.8298   27.3620 C   0  0  0  0  0  0  0  0  0  0  0  0
    1.6729    1.8431   26.3740 N   0  0  0  0  0  0  0  0  0  0  0  0
    1.7103    2.3168   24.9799 C   0  0  0  0  0  0  0  0  0  0  0  0
    0.8807    2.8831   24.3260 O   0  0  0  0  0  0  0  0  0  0  0  0
    3.0721    1.8552   24.3363 C   0  0  0  0  0  0  0  0  0  0  0  0
    3.4592    1.7244   22.6994 C   0  0  0  0  0  0  0  0  0  0  0  0
    4.6743    0.4006   22.0189 C   0  0  0  0  0  0  0  0  0  0  0  0
    4.7382   -0.9801   22.1708 N   0  0  0  0  0  0  0  0  0  0  0  0
    5.8376   -1.6823   21.4242 C   0  0  0  0  0  0  0  0  0  0  0  0
    6.7033   -0.7564   20.8031 C   0  0  0  0  0  0  0  0  0  0  0  0
    5.9226    0.4821   21.3640 N   0  0  0  0  0  0  0  0  0  0  0  0
   -0.1766    1.0935   29.7281 N   0  0  0  0  0  0  0  0  0  0  0  0
   -0.4269    1.4255   31.1054 C   0  0  0  0  0  0  0  0  0  0  0  0
    0.1719    2.1375   31.8574 O   0  0  0  0  0  0  0  0  0  0  0  0
   -1.6017    0.6696   31.6843 C   0  0  0  0  0  0  0  0  0  0  0  0
   -2.1866    0.8729   32.9806 C   0  0  0  0  0  0  0  0  0  0  0  0
   -3.1838   -0.0633   33.1080 C   0  0  0  0  0  0  0  0  0  0  0  0
   -3.1222   -0.8036   31.9684 N   0  0  0  0  0  0  0  0  0  0  0  0
   -2.2488   -0.3306   31.0503 N   0  0  0  0  0  0  0  0  0  0  0  0
    3.0419   -2.7364   27.7959 H   0  0  0  0  0  0  0  0  0  0  0  0
    3.2807   -2.0963   29.4317 H   0  0  0  0  0  0  0  0  0  0  0  0
    4.0146   -1.2831   28.0357 H   0  0  0  0  0  0  0  0  0  0  0  0
    1.7663   -0.7574   27.1463 H   0  0  0  0  0  0  0  0  0  0  0  0
    0.6043   -1.8589   29.7481 H   0  0  0  0  0  0  0  0  0  0  0  0
   -0.2804   -1.2843   28.3159 H   0  0  0  0  0  0  0  0  0  0  0  0
    0.6568   -2.7655   28.2294 H   0  0  0  0  0  0  0  0  0  0  0  0
    3.0003    0.8226   28.6409 H   0  0  0  0  0  0  0  0  0  0  0  0
    2.2026    0.1516   30.0404 H   0  0  0  0  0  0  0  0  0  0  0  0
    1.3776    2.3544   29.2812 H   0  0  0  0  0  0  0  0  0  0  0  0
    0.0884    2.8116   27.3347 H   0  0  0  0  0  0  0  0  0  0  0  0
   -0.1654    1.1153   26.9835 H   0  0  0  0  0  0  0  0  0  0  0  0
    2.5258    1.3304   26.5740 H   0  0  0  0  0  0  0  0  0  0  0  0
    3.4433    0.9758   24.8744 H   0  0  0  0  0  0  0  0  0  0  0  0
    3.6135    2.7427   24.6918 H   0  0  0  0  0  0  0  0  0  0  0  0
    3.7006    2.7771   22.5248 H   0  0  0  0  0  0  0  0  0  0  0  0
    2.6005    1.6520   22.0217 H   0  0  0  0  0  0  0  0  0  0  0  0
    5.7639   -2.7271   21.1603 H   0  0  0  0  0  0  0  0  0  0  0  0
    7.5215   -0.6781   20.1101 H   0  0  0  0  0  0  0  0  0  0  0  0
    6.5178    1.2861   21.5126 H   0  0  0  0  0  0  0  0  0  0  0  0
   -0.8483    0.3885   29.4302 H   0  0  0  0  0  0  0  0  0  0  0  0
   -1.8765    1.6064   33.7136 H   0  0  0  0  0  0  0  0  0  0  0  0
   -3.8668   -0.3005   33.9114 H   0  0  0  0  0  0  0  0  0  0  0  0
   -3.6601   -1.6331   31.7351 H   0  0  0  0  0  0  0  0  0  0  0  0
  1  2  1  0
  2  3  1  0
  2  4  1  0
  4  5  1  0
  5  6  1  0
  6  7  1  0
  7  8  1  0
  8  9  2  0
  8 10  1  0
 10 11  1  0
 11 12  1  0
 12 13  2  0
 13 14  1  0
 14 15  2  0
 15 16  1  0
  5 17  1  0
 17 18  1  0
 18 19  2  0
 18 20  1  0
 20 21  1  0
 21 22  2  0
 22 23  1  0
 23 24  1  0
 16 12  1  0
 24 20  2  0
  1 25  1  0
  1 26  1  0
  1 27  1  0
  2 28  1  0
  3 29  1  0
  3 30  1  0
  3 31  1  0
  4 32  1  0
  4 33  1  0
  5 34  1  0
  6 35  1  0
  6 36  1  0
  7 37  1  0
 10 38  1  0
 10 39  1  0
 11 40  1  0
 11 41  1  0
 14 42  1  0
 15 43  1  0
 16 44  1  0
 17 45  1  0
 21 46  1  0
 22 47  1  0
 23 48  1  0
M  END
>  <Energy>  (1503) 
159.90968773295833

>  <compound_id>  (1503) 
10597

>  <target_id>  (1503) 
1

>  <reference_id>  (1503) 
7

>  <inspiration_ids>  (1503) 
[63, 7]

>  <energy_score>  (1503) 
96.99159066213377

>  <distance_score>  (1503) 
9.900646383418275

>  <path>  (1503) 
/opt/xchem-fragalysis-2/maxwin/BulkDock/SCRATCH/511021/C10597-P7/C10597-P7.minimised.mol

>  <scratch_subdir>  (1503) 
/opt/xchem-fragalysis-2/maxwin/BulkDock/SCRATCH/511021/C10597-P7

>  <fragmenstein_runtime>  (1503) 
29.874300956726074

>  <fragmenstein_outcome>  (1503) 
too moved

>  <fragmenstein_mode>  (1503) 
expansion

>  <fragmenstein_error>  (1503) 


$$$$
C10598-P63
     RDKit          3D

 51 52  0  0  0  0  0  0  0  0999 V2000
   -2.9086   -3.2113   24.2115 C   0  0  0  0  0  0  0  0  0  0  0  0
   -2.8481   -1.7850   23.9071 C   0  0  0  0  0  0  0  0  0  0  0  0
   -3.5349   -1.3593   25.5431 C   0  0  0  0  0  0  0  0  0  0  0  0
   -1.4284   -0.5455   23.8575 C   0  0  0  0  0  0  0  0  0  0  0  0
   -0.9849    1.5427   23.5624 C   0  0  0  0  0  0  0  0  0  0  0  0
   -0.5678    2.6061   22.3564 C   0  0  0  0  0  0  0  0  0  0  0  0
    0.7360    3.2148   22.0302 N   0  0  0  0  0  0  0  0  0  0  0  0
    1.1119    4.6011   21.8239 C   0  0  0  0  0  0  0  0  0  0  0  0
    0.4752    5.6103   21.9454 O   0  0  0  0  0  0  0  0  0  0  0  0
    2.5436    4.7371   21.2622 C   0  0  0  0  0  0  0  0  0  0  0  0
    2.5610    4.7500   19.7237 C   0  0  0  0  0  0  0  0  0  0  0  0
    3.9242    4.8417   19.0406 C   0  0  0  0  0  0  0  0  0  0  0  0
    5.0861    5.1832   19.5748 N   0  0  0  0  0  0  0  0  0  0  0  0
    6.0283    5.0711   18.5770 C   0  0  0  0  0  0  0  0  0  0  0  0
    5.4478    4.6434   17.4105 C   0  0  0  0  0  0  0  0  0  0  0  0
    4.1104    4.5617   17.6946 N   0  0  0  0  0  0  0  0  0  0  0  0
    3.0772    4.2708   16.7286 C   0  0  0  0  0  0  0  0  0  0  0  0
   -2.1027    2.3298   24.2991 N   0  0  0  0  0  0  0  0  0  0  0  0
   -3.0101    3.3799   23.8247 C   0  0  0  0  0  0  0  0  0  0  0  0
   -3.1692    3.8384   22.7276 O   0  0  0  0  0  0  0  0  0  0  0  0
   -3.9095    3.8449   24.8975 C   0  0  0  0  0  0  0  0  0  0  0  0
   -4.8024    4.9556   24.8411 C   0  0  0  0  0  0  0  0  0  0  0  0
   -5.5621    4.8815   25.9757 C   0  0  0  0  0  0  0  0  0  0  0  0
   -5.0987    3.7848   26.6167 N   0  0  0  0  0  0  0  0  0  0  0  0
   -4.0641    3.1584   26.0432 N   0  0  0  0  0  0  0  0  0  0  0  0
   -3.0089   -3.3499   25.2566 H   0  0  0  0  0  0  0  0  0  0  0  0
   -2.2506   -4.0673   24.1941 H   0  0  0  0  0  0  0  0  0  0  0  0
   -3.7319   -3.3791   23.5736 H   0  0  0  0  0  0  0  0  0  0  0  0
   -3.0211   -1.7208   22.8253 H   0  0  0  0  0  0  0  0  0  0  0  0
   -4.4457   -1.8682   25.8209 H   0  0  0  0  0  0  0  0  0  0  0  0
   -3.3493   -0.2912   25.7053 H   0  0  0  0  0  0  0  0  0  0  0  0
   -2.9999   -1.7121   26.4608 H   0  0  0  0  0  0  0  0  0  0  0  0
   -1.6675   -0.2957   25.0305 H   0  0  0  0  0  0  0  0  0  0  0  0
   -0.9744   -1.5142   23.3834 H   0  0  0  0  0  0  0  0  0  0  0  0
   -0.2083    1.8922   24.2914 H   0  0  0  0  0  0  0  0  0  0  0  0
   -1.1105    3.5275   22.5055 H   0  0  0  0  0  0  0  0  0  0  0  0
   -0.8937    2.2043   21.4450 H   0  0  0  0  0  0  0  0  0  0  0  0
    1.5098    2.6162   21.7505 H   0  0  0  0  0  0  0  0  0  0  0  0
    3.1437    3.9451   21.6963 H   0  0  0  0  0  0  0  0  0  0  0  0
    2.9671    5.6729   21.6483 H   0  0  0  0  0  0  0  0  0  0  0  0
    1.9606    5.6005   19.3755 H   0  0  0  0  0  0  0  0  0  0  0  0
    2.0483    3.8488   19.3650 H   0  0  0  0  0  0  0  0  0  0  0  0
    7.0700    5.2955   18.7622 H   0  0  0  0  0  0  0  0  0  0  0  0
    5.8472    4.4302   16.4286 H   0  0  0  0  0  0  0  0  0  0  0  0
    2.7881    3.2235   16.8353 H   0  0  0  0  0  0  0  0  0  0  0  0
    2.2219    4.9252   16.9142 H   0  0  0  0  0  0  0  0  0  0  0  0
    3.4589    4.4623   15.7229 H   0  0  0  0  0  0  0  0  0  0  0  0
   -2.1805    2.2560   25.3207 H   0  0  0  0  0  0  0  0  0  0  0  0
   -4.8801    5.6780   24.0401 H   0  0  0  0  0  0  0  0  0  0  0  0
   -6.3485    5.5006   26.3798 H   0  0  0  0  0  0  0  0  0  0  0  0
   -5.3583    3.4922   27.5451 H   0  0  0  0  0  0  0  0  0  0  0  0
  1  2  1  0
  2  3  1  0
  2  4  1  0
  4  5  1  0
  5  6  1  0
  6  7  1  0
  7  8  1  0
  8  9  2  0
  8 10  1  0
 10 11  1  0
 11 12  1  0
 12 13  2  0
 13 14  1  0
 14 15  2  0
 15 16  1  0
 16 17  1  0
  5 18  1  0
 18 19  1  0
 19 20  2  0
 19 21  1  0
 21 22  1  0
 22 23  2  0
 23 24  1  0
 24 25  1  0
 16 12  1  0
 25 21  2  0
  1 26  1  0
  1 27  1  0
  1 28  1  0
  2 29  1  0
  3 30  1  0
  3 31  1  0
  3 32  1  0
  4 33  1  0
  4 34  1  0
  5 35  1  0
  6 36  1  0
  6 37  1  0
  7 38  1  0
 10 39  1  0
 10 40  1  0
 11 41  1  0
 11 42  1  0
 14 43  1  0
 15 44  1  0
 17 45  1  0
 17 46  1  0
 17 47  1  0
 18 48  1  0
 22 49  1  0
 23 50  1  0
 24 51  1  0
M  END
>  <Energy>  (1504) 
379.93405121868369

>  <compound_id>  (1504) 
10598

>  <target_id>  (1504) 
1

>  <reference_id>  (1504) 
63

>  <inspiration_ids>  (1504) 
[63, 7]

>  <energy_score>  (1504) 
322.8197125393775

>  <distance_score>  (1504) 
12.725343856244745

>  <path>  (1504) 
/opt/xchem-fragalysis-2/maxwin/BulkDock/SCRATCH/511021/C10598-P63/C10598-P63.minimised.mol

>  <scratch_subdir>  (1504) 
/opt/xchem-fragalysis-2/maxwin/BulkDock/SCRATCH/511021/C10598-P63

>  <fragmenstein_runtime>  (1504) 
29.72857427597046

>  <fragmenstein_outcome>  (1504) 
too moved

>  <fragmenstein_mode>  (1504) 
expansion

>  <fragmenstein_error>  (1504) 


$$$$
C10598-P7
     RDKit          3D

 51 52  0  0  0  0  0  0  0  0999 V2000
   -3.0536   -3.2773   24.4488 C   0  0  0  0  0  0  0  0  0  0  0  0
   -3.0505   -1.8776   24.1371 C   0  0  0  0  0  0  0  0  0  0  0  0
   -2.7747   -1.8971   22.6594 C   0  0  0  0  0  0  0  0  0  0  0  0
   -3.1589   -0.8090   25.8178 C   0  0  0  0  0  0  0  0  0  0  0  0
   -1.9665   -0.0454   26.7683 C   0  0  0  0  0  0  0  0  0  0  0  0
   -2.0170    1.5479   26.6380 C   0  0  0  0  0  0  0  0  0  0  0  0
   -0.8584    2.2066   26.0100 N   0  0  0  0  0  0  0  0  0  0  0  0
   -0.6614    2.6978   24.6640 C   0  0  0  0  0  0  0  0  0  0  0  0
   -1.3635    2.6218   23.6949 O   0  0  0  0  0  0  0  0  0  0  0  0
    0.7497    3.3660   24.5219 C   0  0  0  0  0  0  0  0  0  0  0  0
    0.9981    3.8959   23.0887 C   0  0  0  0  0  0  0  0  0  0  0  0
    2.4126    4.3168   22.7301 C   0  0  0  0  0  0  0  0  0  0  0  0
    3.4254    4.5604   23.5449 N   0  0  0  0  0  0  0  0  0  0  0  0
    4.4235    5.1006   22.7627 C   0  0  0  0  0  0  0  0  0  0  0  0
    4.0346    5.1701   21.4497 C   0  0  0  0  0  0  0  0  0  0  0  0
    2.7879    4.6065   21.4277 N   0  0  0  0  0  0  0  0  0  0  0  0
    1.9881    4.3985   20.2459 C   0  0  0  0  0  0  0  0  0  0  0  0
   -2.0916   -0.4433   28.2084 N   0  0  0  0  0  0  0  0  0  0  0  0
   -1.5435    0.1520   29.4081 C   0  0  0  0  0  0  0  0  0  0  0  0
   -0.7860    1.0685   29.5482 O   0  0  0  0  0  0  0  0  0  0  0  0
   -2.1208   -0.4433   30.6775 C   0  0  0  0  0  0  0  0  0  0  0  0
   -2.2821    0.2459   31.9254 C   0  0  0  0  0  0  0  0  0  0  0  0
   -3.0569   -0.5632   32.7221 C   0  0  0  0  0  0  0  0  0  0  0  0
   -3.2777   -1.6777   31.9801 N   0  0  0  0  0  0  0  0  0  0  0  0
   -2.6416   -1.6856   30.7925 N   0  0  0  0  0  0  0  0  0  0  0  0
   -3.0973   -3.2781   25.5062 H   0  0  0  0  0  0  0  0  0  0  0  0
   -2.4189   -4.1287   24.3037 H   0  0  0  0  0  0  0  0  0  0  0  0
   -3.8285   -3.4630   23.7804 H   0  0  0  0  0  0  0  0  0  0  0  0
   -2.0782   -1.4156   23.9074 H   0  0  0  0  0  0  0  0  0  0  0  0
   -1.7519   -2.2267   22.4740 H   0  0  0  0  0  0  0  0  0  0  0  0
   -3.4121   -2.6197   22.1557 H   0  0  0  0  0  0  0  0  0  0  0  0
   -2.9583   -0.9253   22.2109 H   0  0  0  0  0  0  0  0  0  0  0  0
   -3.7485    0.0818   25.6503 H   0  0  0  0  0  0  0  0  0  0  0  0
   -3.5371   -1.5952   26.4937 H   0  0  0  0  0  0  0  0  0  0  0  0
   -0.9552   -0.3573   26.5526 H   0  0  0  0  0  0  0  0  0  0  0  0
   -2.8863    1.8589   26.0519 H   0  0  0  0  0  0  0  0  0  0  0  0
   -2.1323    2.0232   27.6161 H   0  0  0  0  0  0  0  0  0  0  0  0
   -0.0893    2.5261   26.5959 H   0  0  0  0  0  0  0  0  0  0  0  0
    1.5090    2.6214   24.7856 H   0  0  0  0  0  0  0  0  0  0  0  0
    0.8186    4.1925   25.2383 H   0  0  0  0  0  0  0  0  0  0  0  0
    0.3446    4.7647   22.9321 H   0  0  0  0  0  0  0  0  0  0  0  0
    0.6753    3.1478   22.3572 H   0  0  0  0  0  0  0  0  0  0  0  0
    5.3664    5.4113   23.1922 H   0  0  0  0  0  0  0  0  0  0  0  0
    4.5408    5.5092   20.5580 H   0  0  0  0  0  0  0  0  0  0  0  0
    2.5578    4.6952   19.3615 H   0  0  0  0  0  0  0  0  0  0  0  0
    1.7352    3.3384   20.1795 H   0  0  0  0  0  0  0  0  0  0  0  0
    1.0843    5.0076   20.3252 H   0  0  0  0  0  0  0  0  0  0  0  0
   -2.6376   -1.2608   28.4642 H   0  0  0  0  0  0  0  0  0  0  0  0
   -1.9170    1.2368   32.1577 H   0  0  0  0  0  0  0  0  0  0  0  0
   -3.4647   -0.4327   33.7144 H   0  0  0  0  0  0  0  0  0  0  0  0
   -3.8752   -2.4652   32.2004 H   0  0  0  0  0  0  0  0  0  0  0  0
  1  2  1  0
  2  3  1  0
  2  4  1  0
  4  5  1  0
  5  6  1  0
  6  7  1  0
  7  8  1  0
  8  9  2  0
  8 10  1  0
 10 11  1  0
 11 12  1  0
 12 13  2  0
 13 14  1  0
 14 15  2  0
 15 16  1  0
 16 17  1  0
  5 18  1  0
 18 19  1  0
 19 20  2  0
 19 21  1  0
 21 22  1  0
 22 23  2  0
 23 24  1  0
 24 25  1  0
 16 12  1  0
 25 21  2  0
  1 26  1  0
  1 27  1  0
  1 28  1  0
  2 29  1  0
  3 30  1  0
  3 31  1  0
  3 32  1  0
  4 33  1  0
  4 34  1  0
  5 35  1  0
  6 36  1  0
  6 37  1  0
  7 38  1  0
 10 39  1  0
 10 40  1  0
 11 41  1  0
 11 42  1  0
 14 43  1  0
 15 44  1  0
 17 45  1  0
 17 46  1  0
 17 47  1  0
 18 48  1  0
 22 49  1  0
 23 50  1  0
 24 51  1  0
M  END
>  <Energy>  (1505) 
213.16525416128755

>  <compound_id>  (1505) 
10598

>  <target_id>  (1505) 
1

>  <reference_id>  (1505) 
7

>  <inspiration_ids>  (1505) 
[63, 7]

>  <energy_score>  (1505) 
156.05091548198618

>  <distance_score>  (1505) 
11.78090262436494

>  <path>  (1505) 
/opt/xchem-fragalysis-2/maxwin/BulkDock/SCRATCH/511021/C10598-P7/C10598-P7.minimised.mol

>  <scratch_subdir>  (1505) 
/opt/xchem-fragalysis-2/maxwin/BulkDock/SCRATCH/511021/C10598-P7

>  <fragmenstein_runtime>  (1505) 
30.128716707229614

>  <fragmenstein_outcome>  (1505) 
too moved

>  <fragmenstein_mode>  (1505) 
expansion

>  <fragmenstein_error>  (1505) 


$$$$
C10599-P63
     RDKit          3D

 46 48  0  0  0  0  0  0  0  0999 V2000
    7.8731   -1.6207   26.2876 C   0  0  0  0  0  0  0  0  0  0  0  0
    6.3133   -1.5053   26.1553 C   0  0  0  0  0  0  0  0  0  0  0  0
    5.8621   -1.9736   27.5724 C   0  0  0  0  0  0  0  0  0  0  0  0
    5.6876   -2.1901   24.5797 C   0  0  0  0  0  0  0  0  0  0  0  0
    4.9716   -1.3842   22.9256 C   0  0  0  0  0  0  0  0  0  0  0  0
    3.9412   -1.0043   24.6570 C   0  0  0  0  0  0  0  0  0  0  0  0
    4.1472    0.0919   25.0480 O   0  0  0  0  0  0  0  0  0  0  0  0
    3.1483   -2.0669   25.3426 N   0  0  0  0  0  0  0  0  0  0  0  0
    2.4712   -2.1042   26.7632 C   0  0  0  0  0  0  0  0  0  0  0  0
    2.5903   -0.7409   27.4860 C   0  0  0  0  0  0  0  0  0  0  0  0
    1.2022   -0.4032   27.9885 C   0  0  0  0  0  0  0  0  0  0  0  0
    0.6089   -1.6530   28.3544 N   0  0  0  0  0  0  0  0  0  0  0  0
   -0.4116   -1.7764   29.3295 C   0  0  0  0  0  0  0  0  0  0  0  0
   -1.1187   -0.6794   29.9341 C   0  0  0  0  0  0  0  0  0  0  0  0
   -1.9392   -1.2175   30.8986 C   0  0  0  0  0  0  0  0  0  0  0  0
   -1.7211   -2.5556   30.8305 N   0  0  0  0  0  0  0  0  0  0  0  0
   -0.8294   -2.9177   29.8938 N   0  0  0  0  0  0  0  0  0  0  0  0
    1.2299   -2.7052   27.6225 C   0  0  0  0  0  0  0  0  0  0  0  0
    0.9661   -3.9015   27.6891 O   0  0  0  0  0  0  0  0  0  0  0  0
    5.6951   -0.3246   21.3858 N   0  0  0  0  0  0  0  0  0  0  0  0
    7.0161   -0.9900   20.3536 C   0  0  0  0  0  0  0  0  0  0  0  0
    7.0339   -0.3287   19.1048 C   0  0  0  0  0  0  0  0  0  0  0  0
    7.3093    0.8579   19.4393 N   0  0  0  0  0  0  0  0  0  0  0  0
    7.3282    0.6257   20.7787 C   0  0  0  0  0  0  0  0  0  0  0  0
    8.1817   -2.6670   26.3736 H   0  0  0  0  0  0  0  0  0  0  0  0
    8.2103   -1.1072   27.1970 H   0  0  0  0  0  0  0  0  0  0  0  0
    8.4543   -1.1859   25.4750 H   0  0  0  0  0  0  0  0  0  0  0  0
    5.9557   -0.4774   26.2522 H   0  0  0  0  0  0  0  0  0  0  0  0
    6.5338   -2.7155   28.0234 H   0  0  0  0  0  0  0  0  0  0  0  0
    5.8753   -1.1193   28.2624 H   0  0  0  0  0  0  0  0  0  0  0  0
    4.8763   -2.3857   27.6029 H   0  0  0  0  0  0  0  0  0  0  0  0
    6.2829   -3.0833   24.3490 H   0  0  0  0  0  0  0  0  0  0  0  0
    4.8721   -2.8188   24.8920 H   0  0  0  0  0  0  0  0  0  0  0  0
    5.2675   -2.2753   22.4207 H   0  0  0  0  0  0  0  0  0  0  0  0
    3.0788   -2.8636   24.7269 H   0  0  0  0  0  0  0  0  0  0  0  0
    3.1976   -2.7749   27.2156 H   0  0  0  0  0  0  0  0  0  0  0  0
    3.2630   -0.8474   28.3466 H   0  0  0  0  0  0  0  0  0  0  0  0
    2.9615    0.0934   26.8990 H   0  0  0  0  0  0  0  0  0  0  0  0
    1.2672    0.2727   28.8475 H   0  0  0  0  0  0  0  0  0  0  0  0
    0.5824    0.0648   27.2195 H   0  0  0  0  0  0  0  0  0  0  0  0
   -1.0165    0.3698   29.6983 H   0  0  0  0  0  0  0  0  0  0  0  0
   -2.6301   -0.7795   31.6025 H   0  0  0  0  0  0  0  0  0  0  0  0
   -2.1311   -3.2879   31.3984 H   0  0  0  0  0  0  0  0  0  0  0  0
    7.7125   -1.1690   21.0683 H   0  0  0  0  0  0  0  0  0  0  0  0
    6.4540   -0.4653   18.1958 H   0  0  0  0  0  0  0  0  0  0  0  0
    7.5801    1.4132   21.5110 H   0  0  0  0  0  0  0  0  0  0  0  0
  1  2  1  0
  2  3  1  0
  2  4  1  0
  4  5  1  0
  5  6  1  0
  6  7  2  0
  6  8  1  0
  8  9  1  0
  9 10  1  0
 10 11  1  0
 11 12  1  0
 12 13  1  0
 13 14  1  0
 14 15  2  0
 15 16  1  0
 16 17  1  0
 12 18  1  0
 18 19  2  0
  5 20  1  0
 20 21  1  0
 21 22  2  0
 22 23  1  0
 23 24  2  0
 18  9  1  0
 24 20  1  0
 17 13  2  0
  1 25  1  0
  1 26  1  0
  1 27  1  0
  2 28  1  0
  3 29  1  0
  3 30  1  0
  3 31  1  0
  4 32  1  0
  4 33  1  0
  5 34  1  0
  8 35  1  0
  9 36  1  0
 10 37  1  0
 10 38  1  0
 11 39  1  0
 11 40  1  0
 14 41  1  0
 15 42  1  0
 16 43  1  0
 21 44  1  0
 22 45  1  0
 24 46  1  0
M  END
>  <Energy>  (1506) 
732.96688425695379

>  <compound_id>  (1506) 
10599

>  <target_id>  (1506) 
1

>  <reference_id>  (1506) 
63

>  <inspiration_ids>  (1506) 
[63, 7]

>  <energy_score>  (1506) 
678.3350098394883

>  <distance_score>  (1506) 
10.55929488663291

>  <path>  (1506) 
/opt/xchem-fragalysis-2/maxwin/BulkDock/SCRATCH/511021/C10599-P63/C10599-P63.minimised.mol

>  <scratch_subdir>  (1506) 
/opt/xchem-fragalysis-2/maxwin/BulkDock/SCRATCH/511021/C10599-P63

>  <fragmenstein_runtime>  (1506) 
9.226530313491821

>  <fragmenstein_outcome>  (1506) 
too moved

>  <fragmenstein_mode>  (1506) 
expansion

>  <fragmenstein_error>  (1506) 


$$$$
C10599-P7
     RDKit          3D

 46 48  0  0  0  0  0  0  0  0999 V2000
    3.9065   -3.9384   30.5422 C   0  0  0  0  0  0  0  0  0  0  0  0
    4.7691   -2.7930   30.0061 C   0  0  0  0  0  0  0  0  0  0  0  0
    6.0197   -2.6515   30.8777 C   0  0  0  0  0  0  0  0  0  0  0  0
    3.9823   -1.4706   29.9886 C   0  0  0  0  0  0  0  0  0  0  0  0
    2.9687   -1.3514   28.8191 C   0  0  0  0  0  0  0  0  0  0  0  0
    1.7883   -0.4425   29.2950 C   0  0  0  0  0  0  0  0  0  0  0  0
    1.7591    0.7047   28.9516 O   0  0  0  0  0  0  0  0  0  0  0  0
    0.9236   -1.1829   30.2075 N   0  0  0  0  0  0  0  0  0  0  0  0
   -0.1727   -0.7383   31.0497 C   0  0  0  0  0  0  0  0  0  0  0  0
   -1.1443    0.2040   30.3679 C   0  0  0  0  0  0  0  0  0  0  0  0
   -2.2655    0.2724   31.3838 C   0  0  0  0  0  0  0  0  0  0  0  0
   -2.3397   -1.0407   31.9704 N   0  0  0  0  0  0  0  0  0  0  0  0
   -3.3905   -1.4755   32.7888 C   0  0  0  0  0  0  0  0  0  0  0  0
   -4.4976   -0.6772   33.2200 C   0  0  0  0  0  0  0  0  0  0  0  0
   -5.2712   -1.4864   34.0172 C   0  0  0  0  0  0  0  0  0  0  0  0
   -4.6200   -2.6802   34.0426 N   0  0  0  0  0  0  0  0  0  0  0  0
   -3.5050   -2.7035   33.2991 N   0  0  0  0  0  0  0  0  0  0  0  0
   -1.1498   -1.7613   31.6901 C   0  0  0  0  0  0  0  0  0  0  0  0
   -0.8482   -2.9207   31.9300 O   0  0  0  0  0  0  0  0  0  0  0  0
    3.6323   -0.8998   27.5799 N   0  0  0  0  0  0  0  0  0  0  0  0
    3.7552   -1.6266   26.4282 C   0  0  0  0  0  0  0  0  0  0  0  0
    4.5659   -0.8812   25.6106 C   0  0  0  0  0  0  0  0  0  0  0  0
    4.9271    0.2916   26.2215 N   0  0  0  0  0  0  0  0  0  0  0  0
    4.3398    0.2585   27.3927 C   0  0  0  0  0  0  0  0  0  0  0  0
    3.0148   -4.0934   29.9281 H   0  0  0  0  0  0  0  0  0  0  0  0
    4.4728   -4.8756   30.5508 H   0  0  0  0  0  0  0  0  0  0  0  0
    3.5752   -3.7399   31.5675 H   0  0  0  0  0  0  0  0  0  0  0  0
    5.0990   -3.0349   28.9897 H   0  0  0  0  0  0  0  0  0  0  0  0
    6.6778   -1.8673   30.4884 H   0  0  0  0  0  0  0  0  0  0  0  0
    5.7591   -2.3944   31.9101 H   0  0  0  0  0  0  0  0  0  0  0  0
    6.5905   -3.5860   30.8937 H   0  0  0  0  0  0  0  0  0  0  0  0
    4.6873   -0.6305   29.9464 H   0  0  0  0  0  0  0  0  0  0  0  0
    3.4722   -1.3614   30.9547 H   0  0  0  0  0  0  0  0  0  0  0  0
    2.5383   -2.3303   28.5738 H   0  0  0  0  0  0  0  0  0  0  0  0
    1.1928   -2.1625   30.1996 H   0  0  0  0  0  0  0  0  0  0  0  0
    0.3100   -0.2158   31.8871 H   0  0  0  0  0  0  0  0  0  0  0  0
   -0.7205    1.1891   30.1530 H   0  0  0  0  0  0  0  0  0  0  0  0
   -1.5036   -0.2263   29.4244 H   0  0  0  0  0  0  0  0  0  0  0  0
   -2.0473    0.9965   32.1763 H   0  0  0  0  0  0  0  0  0  0  0  0
   -3.2074    0.5184   30.8958 H   0  0  0  0  0  0  0  0  0  0  0  0
   -4.6984    0.3564   32.9898 H   0  0  0  0  0  0  0  0  0  0  0  0
   -6.1891   -1.3201   34.5624 H   0  0  0  0  0  0  0  0  0  0  0  0
   -4.8711   -3.5278   34.5405 H   0  0  0  0  0  0  0  0  0  0  0  0
    3.2877   -2.5846   26.2772 H   0  0  0  0  0  0  0  0  0  0  0  0
    4.8916   -1.1362   24.6151 H   0  0  0  0  0  0  0  0  0  0  0  0
    4.3956    1.0361   28.1429 H   0  0  0  0  0  0  0  0  0  0  0  0
  1  2  1  0
  2  3  1  0
  2  4  1  0
  4  5  1  0
  5  6  1  0
  6  7  2  0
  6  8  1  0
  8  9  1  0
  9 10  1  0
 10 11  1  0
 11 12  1  0
 12 13  1  0
 13 14  1  0
 14 15  2  0
 15 16  1  0
 16 17  1  0
 12 18  1  0
 18 19  2  0
  5 20  1  0
 20 21  1  0
 21 22  2  0
 22 23  1  0
 23 24  2  0
 18  9  1  0
 24 20  1  0
 17 13  2  0
  1 25  1  0
  1 26  1  0
  1 27  1  0
  2 28  1  0
  3 29  1  0
  3 30  1  0
  3 31  1  0
  4 32  1  0
  4 33  1  0
  5 34  1  0
  8 35  1  0
  9 36  1  0
 10 37  1  0
 10 38  1  0
 11 39  1  0
 11 40  1  0
 14 41  1  0
 15 42  1  0
 16 43  1  0
 21 44  1  0
 22 45  1  0
 24 46  1  0
M  END
>  <Energy>  (1507) 
22.51251092919421

>  <compound_id>  (1507) 
10599

>  <target_id>  (1507) 
1

>  <reference_id>  (1507) 
7

>  <inspiration_ids>  (1507) 
[63, 7]

>  <energy_score>  (1507) 
-32.11936348826504

>  <distance_score>  (1507) 
11.174788231950815

>  <path>  (1507) 
/opt/xchem-fragalysis-2/maxwin/BulkDock/SCRATCH/511021/C10599-P7/C10599-P7.minimised.mol

>  <scratch_subdir>  (1507) 
/opt/xchem-fragalysis-2/maxwin/BulkDock/SCRATCH/511021/C10599-P7

>  <fragmenstein_runtime>  (1507) 
12.746855735778809

>  <fragmenstein_outcome>  (1507) 
too moved

>  <fragmenstein_mode>  (1507) 
expansion

>  <fragmenstein_error>  (1507) 


$$$$
C10600-P63
     RDKit          3D

 39 40  0  0  0  0  0  0  0  0999 V2000
    6.2836   -1.1926   26.6702 C   0  0  0  0  0  0  0  0  0  0  0  0
    5.2240   -1.3485   25.4541 C   0  0  0  0  0  0  0  0  0  0  0  0
    5.3506   -2.5286   24.0517 C   0  0  0  0  0  0  0  0  0  0  0  0
    4.1333   -3.4570   24.5178 C   0  0  0  0  0  0  0  0  0  0  0  0
    3.1279   -2.8436   25.6183 N   0  0  0  0  0  0  0  0  0  0  0  0
    3.2467   -2.7269   27.1053 C   0  0  0  0  0  0  0  0  0  0  0  0
    4.1639   -2.9923   27.8412 O   0  0  0  0  0  0  0  0  0  0  0  0
    1.9554   -2.2962   27.8142 C   0  0  0  0  0  0  0  0  0  0  0  0
    1.4007   -2.9257   28.9896 C   0  0  0  0  0  0  0  0  0  0  0  0
    0.2235   -2.2743   29.2783 C   0  0  0  0  0  0  0  0  0  0  0  0
    0.1264   -1.2994   28.3355 N   0  0  0  0  0  0  0  0  0  0  0  0
    1.1804   -1.2405   27.4944 N   0  0  0  0  0  0  0  0  0  0  0  0
    6.8117   -3.1688   23.1525 N   0  0  0  0  0  0  0  0  0  0  0  0
    7.6151   -2.5991   21.7810 C   0  0  0  0  0  0  0  0  0  0  0  0
    7.3373   -1.5596   21.2329 O   0  0  0  0  0  0  0  0  0  0  0  0
    9.2001   -3.5230   20.7582 C   0  0  0  0  0  0  0  0  0  0  0  0
   11.3694   -3.4305   20.9351 C   0  0  0  0  0  0  0  0  0  0  0  0
   12.5888   -3.6477   20.1134 C   0  0  0  0  0  0  0  0  0  0  0  0
   13.7722   -3.7460   20.7881 N   0  0  0  0  0  0  0  0  0  0  0  0
   13.4446   -3.7024   22.0434 C   0  0  0  0  0  0  0  0  0  0  0  0
   12.0987   -3.6312   22.2282 N   0  0  0  0  0  0  0  0  0  0  0  0
    7.3106   -1.4228   26.3576 H   0  0  0  0  0  0  0  0  0  0  0  0
    6.2495   -0.1624   27.0510 H   0  0  0  0  0  0  0  0  0  0  0  0
    6.0577   -1.8092   27.5389 H   0  0  0  0  0  0  0  0  0  0  0  0
    4.7530   -0.4264   25.0938 H   0  0  0  0  0  0  0  0  0  0  0  0
    4.3550   -1.4146   26.0506 H   0  0  0  0  0  0  0  0  0  0  0  0
    4.9069   -2.0056   23.1972 H   0  0  0  0  0  0  0  0  0  0  0  0
    4.4085   -4.4893   24.7216 H   0  0  0  0  0  0  0  0  0  0  0  0
    3.4829   -3.5553   23.6378 H   0  0  0  0  0  0  0  0  0  0  0  0
    2.2512   -2.4540   25.3264 H   0  0  0  0  0  0  0  0  0  0  0  0
    1.8278   -3.7680   29.5143 H   0  0  0  0  0  0  0  0  0  0  0  0
   -0.5286   -2.4174   30.0386 H   0  0  0  0  0  0  0  0  0  0  0  0
   -0.6189   -0.6243   28.2045 H   0  0  0  0  0  0  0  0  0  0  0  0
    7.2772   -4.0113   23.4726 H   0  0  0  0  0  0  0  0  0  0  0  0
    8.4171   -4.2844   21.0408 H   0  0  0  0  0  0  0  0  0  0  0  0
    8.9419   -4.0231   19.8690 H   0  0  0  0  0  0  0  0  0  0  0  0
   12.6510   -3.7348   19.0313 H   0  0  0  0  0  0  0  0  0  0  0  0
   14.1344   -3.7204   22.8755 H   0  0  0  0  0  0  0  0  0  0  0  0
   11.6508   -3.5038   23.1203 H   0  0  0  0  0  0  0  0  0  0  0  0
  1  2  1  0
  2  3  1  0
  3  4  1  0
  4  5  1  0
  5  6  1  0
  6  7  2  0
  6  8  1  0
  8  9  1  0
  9 10  2  0
 10 11  1  0
 11 12  1  0
  3 13  1  0
 13 14  1  0
 14 15  2  0
 14 16  1  0
 16 17  1  0
 17 18  2  0
 18 19  1  0
 19 20  2  0
 20 21  1  0
 12  8  2  0
 21 17  1  0
  1 22  1  0
  1 23  1  0
  1 24  1  0
  2 25  1  0
  2 26  1  0
  3 27  1  0
  4 28  1  0
  4 29  1  0
  5 30  1  0
  9 31  1  0
 10 32  1  0
 11 33  1  0
 13 34  1  0
 16 35  1  0
 16 36  1  0
 18 37  1  0
 20 38  1  0
 21 39  1  0
M  END
